* NGSPICE file created from tt_um_ohmy90_flat_adders.ext - technology: sky130A

.subckt tt_um_ohmy90_flat_adders clk ena rst_n ua[0] ua[1] ua[2] ua[3] ua[4] ua[5]
+ ua[6] ua[7] ui_in[0] ui_in[1] ui_in[2] ui_in[3] ui_in[4] ui_in[5] ui_in[6] ui_in[7]
+ uio_in[0] uio_in[1] uio_in[2] uio_in[3] uio_in[4] uio_in[5] uio_in[6] uio_in[7]
+ uio_oe[0] uio_oe[1] uio_oe[2] uio_oe[3] uio_oe[4] uio_oe[5] uio_oe[6] uio_oe[7]
+ uio_out[0] uio_out[1] uio_out[2] uio_out[3] uio_out[4] uio_out[5] uio_out[6] uio_out[7]
+ uo_out[0] uo_out[1] uo_out[2] uo_out[3] uo_out[4] uo_out[5] uo_out[6] uo_out[7]
+ VDPWR VGND
X0 a_4183_1787# a_4129_2043# a_3790_1761# w_3638_1702# sky130_fd_pr__pfet_01v8_hvt ad=0.05932 pd=0.7025 as=0.0693 ps=0.75 w=0.42 l=0.15
**devattr s=2772,150 d=2478,143
X1 a_15255_4841# a_14325_4589# a_15672_4585# w_14764_4500# sky130_fd_pr__pfet_01v8_hvt ad=0.0567 pd=0.69 as=0.0742 ps=0.91333 w=0.42 l=0.15
**devattr s=2268,138 d=2268,138
X2 a_24234_14385# ui_in[0] a_24152_14385# sky130_fd_sc_hd__mux4_1_0.VNB sky130_fd_pr__nfet_01v8 ad=0.0742 pd=0.91333 as=0.10855 ps=1.36 w=0.42 l=0.15
**devattr s=4368,272 d=2268,138
X3 VGND a_14888_5433# a_14836_5459# sky130_fd_sc_hd__mux4_1_0.VNB sky130_fd_pr__nfet_01v8 ad=0.12891 pd=1.32823 as=0.169 ps=1.82 w=0.65 l=0.15
**devattr s=6760,364 d=4094,199
X4 a_15113_5825# VDPWR a_15017_5825# sky130_fd_sc_hd__mux4_1_0.VNB sky130_fd_pr__nfet_01v8 ad=0.0441 pd=0.63 as=0.0693 ps=0.75 w=0.42 l=0.15
**devattr s=2772,150 d=1764,126
X5 a_13732_1769# VGND VDPWR w_12824_1684# sky130_fd_pr__pfet_01v8_hvt ad=0.0742 pd=0.91333 as=0.08695 ps=0.84002 w=0.42 l=0.15
**devattr s=2268,138 d=2268,138
X6 a_4711_15373# VGND a_4625_15373# sky130_fd_sc_hd__mux4_1_0.VNB sky130_fd_pr__nfet_01v8 ad=0.0567 pd=0.69 as=0.1176 ps=1.4 w=0.42 l=0.15
**devattr s=4704,280 d=2268,138
X7 a_11202_5441# a_10611_5471# a_11427_5467# w_11050_5382# sky130_fd_pr__pfet_01v8_hvt ad=0.0693 pd=0.75 as=0.0441 ps=0.63 w=0.42 l=0.15
**devattr s=1764,126 d=2772,150
X8 VDPWR VGND a_2313_1791# w_1768_1706# sky130_fd_pr__pfet_01v8_hvt ad=0.08695 pd=0.84002 as=0.05932 ps=0.7025 w=0.42 l=0.15
**devattr s=2478,143 d=2268,138
X9 VGND a_5636_5017# a_5584_5043# sky130_fd_sc_hd__mux4_1_0.VNB sky130_fd_pr__nfet_01v8 ad=0.12891 pd=1.32823 as=0.169 ps=1.82 w=0.65 l=0.15
**devattr s=6760,364 d=4094,199
X10 a_9865_15329# a_9587_15357# VDPWR w_9490_15543# sky130_fd_pr__pfet_01v8_hvt ad=0.475 pd=2.95 as=0.20702 ps=2.00005 w=1 l=0.15
**devattr s=6662,278 d=19000,590
X11 a_1950_5025# a_2217_5025# a_2175_5051# w_1798_4966# sky130_fd_pr__pfet_01v8_hvt ad=0.0693 pd=0.75 as=0.0441 ps=0.63 w=0.42 l=0.15
**devattr s=1764,126 d=2772,150
X12 VDPWR VDPWR a_15644_5459# w_14736_5374# sky130_fd_pr__pfet_01v8_hvt ad=0.08695 pd=0.84002 as=0.0742 ps=0.91333 w=0.42 l=0.15
**devattr s=4368,272 d=2268,138
X13 a_5999_1783# a_5069_1787# VDPWR w_5454_1698# sky130_fd_pr__pfet_01v8_hvt ad=0.05932 pd=0.7025 as=0.08695 ps=0.84002 w=0.42 l=0.15
**devattr s=2268,138 d=2268,138
X14 VDPWR VDPWR a_9587_15357# w_9490_15543# sky130_fd_pr__pfet_01v8_hvt ad=0.08695 pd=0.84002 as=0.0567 ps=0.69 w=0.42 l=0.15
**devattr s=2268,138 d=6662,278
X15 a_4513_14775# VDPWR VGND sky130_fd_sc_hd__mux4_1_0.VNB sky130_fd_pr__nfet_01v8 ad=0.08775 pd=0.92 as=0.12891 ps=1.32823 w=0.65 l=0.15
**devattr s=6760,364 d=3510,184
X16 a_6129_12927# a_4913_13781# a_6057_12927# sky130_fd_sc_hd__mux4_1_0.VNB sky130_fd_pr__nfet_01v8 ad=0.0441 pd=0.63 as=0.0441 ps=0.63 w=0.42 l=0.15
**devattr s=1764,126 d=1764,126
X17 VDPWR VDPWR a_6392_5043# w_5484_4958# sky130_fd_pr__pfet_01v8_hvt ad=0.08695 pd=0.84002 as=0.0742 ps=0.91333 w=0.42 l=0.15
**devattr s=4368,272 d=2268,138
X18 a_11623_4959# a_11569_4849# a_11230_4567# sky130_fd_sc_hd__mux4_1_0.VNB sky130_fd_pr__nfet_01v8 ad=0.05932 pd=0.7025 as=0.0693 ps=0.75 w=0.42 l=0.15
**devattr s=2772,150 d=2478,143
X19 VDPWR VDPWR a_11595_5467# w_11050_5382# sky130_fd_pr__pfet_01v8_hvt ad=0.08695 pd=0.84002 as=0.05932 ps=0.7025 w=0.42 l=0.15
**devattr s=2268,138 d=4368,272
X20 sky130_fd_sc_hd__mux4_1_0.A3 a_17125_4938# VDPWR w_16764_4814# sky130_fd_pr__pfet_01v8_hvt ad=0.26 pd=2.52 as=0.20702 ps=2.00005 w=1 l=0.15
**devattr s=6334,279 d=10400,504
X21 a_13802_4955# VGND VGND sky130_fd_sc_hd__mux4_1_0.VNB sky130_fd_pr__nfet_01v8 ad=0.0742 pd=0.91333 as=0.0833 ps=0.85824 w=0.42 l=0.15
**devattr s=2268,138 d=2268,138
X22 a_7113_13395# a_6862_13645# VGND sky130_fd_sc_hd__mux4_1_0.VNB sky130_fd_pr__nfet_01v8 ad=0.169 pd=1.82 as=0.12891 ps=1.32823 w=0.65 l=0.15
**devattr s=4010,197 d=6760,364
X23 VDPWR VGND a_15239_1765# w_14694_1680# sky130_fd_pr__pfet_01v8_hvt ad=0.08695 pd=0.84002 as=0.05932 ps=0.7025 w=0.42 l=0.15
**devattr s=2478,143 d=2268,138
X24 a_3820_5021# a_3229_5051# a_4045_5413# sky130_fd_sc_hd__mux4_1_0.VNB sky130_fd_pr__nfet_01v8 ad=0.0693 pd=0.75 as=0.0441 ps=0.63 w=0.42 l=0.15
**devattr s=1764,126 d=2772,150
X25 VDPWR VGND a_4587_13107# w_4432_13071# sky130_fd_pr__pfet_01v8_hvt ad=0.20702 pd=2.00005 as=0.135 ps=1.27 w=1 l=0.15
**devattr s=5400,254 d=5400,254
X26 a_13439_4955# a_12509_4593# VGND sky130_fd_sc_hd__mux4_1_0.VNB sky130_fd_pr__nfet_01v8 ad=0.05932 pd=0.7025 as=0.0833 ps=0.85824 w=0.42 l=0.15
**devattr s=2268,138 d=2268,138
X27 a_15045_4951# a_14946_4905# a_14946_4905# sky130_fd_sc_hd__mux4_1_0.VNB sky130_fd_pr__nfet_01v8 ad=0.0693 pd=0.75 as=0.07384 ps=0.80236 w=0.42 l=0.15
**devattr s=4094,199 d=2772,150
X28 a_22274_16171# a_21506_16181# VDPWR w_22086_16385# sky130_fd_pr__pfet_01v8_hvt ad=0.26 pd=2.52 as=0.20702 ps=2.00005 w=1 l=0.15
**devattr s=10400,504 d=10400,504
X29 a_2175_5417# VDPWR a_2079_5417# sky130_fd_sc_hd__mux4_1_0.VNB sky130_fd_pr__nfet_01v8 ad=0.0441 pd=0.63 as=0.0693 ps=0.75 w=0.42 l=0.15
**devattr s=2772,150 d=1764,126
X30 a_6089_11935# a_4849_11293# a_6003_11935# sky130_fd_sc_hd__mux4_1_0.VNB sky130_fd_pr__nfet_01v8 ad=0.0567 pd=0.69 as=0.1176 ps=1.4 w=0.42 l=0.15
**devattr s=4704,280 d=2268,138
X31 VDPWR VGND a_4597_11543# w_4442_11507# sky130_fd_pr__pfet_01v8_hvt ad=0.20702 pd=2.00005 as=0.135 ps=1.27 w=1 l=0.15
**devattr s=5400,254 d=5400,254
X32 VDPWR a_9867_12097# a_10965_11919# w_10868_12105# sky130_fd_pr__pfet_01v8_hvt ad=0.08695 pd=0.84002 as=0.0567 ps=0.69 w=0.42 l=0.15
**devattr s=2268,138 d=6662,278
X33 a_14946_4905# a_14946_4905# a_15309_4951# sky130_fd_sc_hd__mux4_1_0.VNB sky130_fd_pr__nfet_01v8 ad=0.07384 pd=0.80236 as=0.05932 ps=0.7025 w=0.42 l=0.15
**devattr s=2478,143 d=2268,138
X34 a_17346_5265# a_16195_4585# a_17125_4938# sky130_fd_sc_hd__mux4_1_0.VNB sky130_fd_pr__nfet_01v8 ad=0.0693 pd=0.75 as=0.09975 ps=0.895 w=0.42 l=0.15
**devattr s=3990,179 d=2772,150
X35 VGND VGND a_9467_13091# sky130_fd_sc_hd__mux4_1_0.VNB sky130_fd_pr__nfet_01v8 ad=0.12891 pd=1.32823 as=0.08775 ps=0.92 w=0.65 l=0.15
**devattr s=3510,184 d=3510,184
X36 a_15936_2131# VDPWR a_15185_2021# sky130_fd_sc_hd__mux4_1_0.VNB sky130_fd_pr__nfet_01v8 ad=0.063 pd=0.72 as=0.0567 ps=0.69 w=0.42 l=0.15
**devattr s=2268,138 d=2520,144
X37 VGND VDPWR a_4213_5413# sky130_fd_sc_hd__mux4_1_0.VNB sky130_fd_pr__nfet_01v8 ad=0.0833 pd=0.85824 as=0.05932 ps=0.7025 w=0.42 l=0.15
**devattr s=2268,138 d=4368,272
X38 a_9671_5727# VGND a_10088_5471# w_9180_5386# sky130_fd_pr__pfet_01v8_hvt ad=0.0567 pd=0.69 as=0.0742 ps=0.91333 w=0.42 l=0.15
**devattr s=2268,138 d=2268,138
X39 a_11553_1773# a_11499_2029# a_11160_1747# w_11008_1688# sky130_fd_pr__pfet_01v8_hvt ad=0.05932 pd=0.7025 as=0.0693 ps=0.75 w=0.42 l=0.15
**devattr s=2772,150 d=2478,143
X40 a_13774_5463# VGND VDPWR w_12866_5378# sky130_fd_pr__pfet_01v8_hvt ad=0.0742 pd=0.91333 as=0.08695 ps=0.84002 w=0.42 l=0.15
**devattr s=2268,138 d=2268,138
X41 a_3949_5047# VGND VDPWR w_3668_4962# sky130_fd_pr__pfet_01v8_hvt ad=0.0693 pd=0.75 as=0.08695 ps=0.84002 w=0.42 l=0.15
**devattr s=5914,269 d=2772,150
X42 VGND VGND a_8566_2145# sky130_fd_sc_hd__mux4_1_0.VNB sky130_fd_pr__nfet_01v8 ad=0.0833 pd=0.85824 as=0.063 ps=0.72 w=0.42 l=0.15
**devattr s=2520,144 d=4094,199
X43 a_9715_16323# VGND VDPWR w_9392_16287# sky130_fd_pr__pfet_01v8_hvt ad=0.17667 pd=1.68667 as=0.20702 ps=2.00005 w=1 l=0.15
**devattr s=5400,254 d=5400,254
X44 a_9725_14509# VGND VGND sky130_fd_sc_hd__mux4_1_0.VNB sky130_fd_pr__nfet_01v8 ad=0.08775 pd=0.92 as=0.12891 ps=1.32823 w=0.65 l=0.15
**devattr s=3510,184 d=3510,184
X45 VGND a_1920_1765# a_1868_1791# sky130_fd_sc_hd__mux4_1_0.VNB sky130_fd_pr__nfet_01v8 ad=0.12891 pd=1.32823 as=0.169 ps=1.82 w=0.65 l=0.15
**devattr s=6760,364 d=4094,199
X46 VDPWR a_12075_13379# a_12881_13987# w_12566_13951# sky130_fd_pr__pfet_01v8_hvt ad=0.08695 pd=0.84002 as=0.0693 ps=0.75 w=0.42 l=0.15
**devattr s=2772,150 d=5930,268
X47 a_10422_5837# VDPWR a_9671_5727# sky130_fd_sc_hd__mux4_1_0.VNB sky130_fd_pr__nfet_01v8 ad=0.063 pd=0.72 as=0.0567 ps=0.69 w=0.42 l=0.15
**devattr s=2268,138 d=2520,144
X48 VDPWR sky130_fd_sc_hd__mux4_1_0.A1 a_6629_15387# w_9392_17212# sky130_fd_pr__pfet_01v8_hvt ad=0.20702 pd=2.00005 as=0.26 ps=2.52 w=1 l=0.15
**devattr s=10400,504 d=10400,504
X49 VDPWR VDPWR a_4753_16339# w_4430_16303# sky130_fd_pr__pfet_01v8_hvt ad=0.20702 pd=2.00005 as=0.17667 ps=1.68667 w=1 l=0.15
**devattr s=5400,254 d=10400,504
X50 a_9332_5445# VGND a_9557_5837# sky130_fd_sc_hd__mux4_1_0.VNB sky130_fd_pr__nfet_01v8 ad=0.0693 pd=0.75 as=0.0441 ps=0.63 w=0.42 l=0.15
**devattr s=1764,126 d=2772,150
X51 VDPWR a_5606_1757# a_5554_1783# w_5454_1698# sky130_fd_pr__pfet_01v8_hvt ad=0.20702 pd=2.00005 as=0.26 ps=2.52 w=1 l=0.15
**devattr s=10400,504 d=5914,269
X52 VDPWR a_12976_1743# a_12924_1769# w_12824_1684# sky130_fd_pr__pfet_01v8_hvt ad=0.20702 pd=2.00005 as=0.26 ps=2.52 w=1 l=0.15
**devattr s=10400,504 d=5914,269
X53 a_4880_1787# VDPWR a_4129_2043# w_3638_1702# sky130_fd_pr__pfet_01v8_hvt ad=0.063 pd=0.72 as=0.0567 ps=0.69 w=0.42 l=0.15
**devattr s=2268,138 d=2520,144
X54 a_5945_2039# a_5069_1787# a_6362_2149# sky130_fd_sc_hd__mux4_1_0.VNB sky130_fd_pr__nfet_01v8 ad=0.0567 pd=0.69 as=0.0742 ps=0.91333 w=0.42 l=0.15
**devattr s=2268,138 d=2268,138
X55 a_12509_4593# a_11569_4849# VDPWR w_11078_4508# sky130_fd_pr__pfet_01v8_hvt ad=0.26 pd=2.52 as=0.20702 ps=2.00005 w=1 l=0.15
**devattr s=5914,269 d=10400,504
X56 a_11359_4959# VGND VGND sky130_fd_sc_hd__mux4_1_0.VNB sky130_fd_pr__nfet_01v8 ad=0.0693 pd=0.75 as=0.0833 ps=0.85824 w=0.42 l=0.15
**devattr s=4094,199 d=2772,150
X57 VGND VDPWR a_4546_2153# sky130_fd_sc_hd__mux4_1_0.VNB sky130_fd_pr__nfet_01v8 ad=0.0833 pd=0.85824 as=0.0742 ps=0.91333 w=0.42 l=0.15
**devattr s=4368,272 d=2268,138
X58 a_4903_15345# a_4625_15373# VGND sky130_fd_sc_hd__mux4_1_0.VNB sky130_fd_pr__nfet_01v8 ad=0.182 pd=1.86 as=0.12891 ps=1.32823 w=0.65 l=0.15
**devattr s=4472,208 d=7280,372
X59 a_11541_5723# a_10611_5471# a_11958_5833# sky130_fd_sc_hd__mux4_1_0.VNB sky130_fd_pr__nfet_01v8 ad=0.0567 pd=0.69 as=0.0742 ps=0.91333 w=0.42 l=0.15
**devattr s=2268,138 d=2268,138
X60 a_11230_4567# a_10639_4597# a_11455_4593# w_11078_4508# sky130_fd_pr__pfet_01v8_hvt ad=0.0693 pd=0.75 as=0.0441 ps=0.63 w=0.42 l=0.15
**devattr s=1764,126 d=2772,150
X61 a_15644_5825# VGND VGND sky130_fd_sc_hd__mux4_1_0.VNB sky130_fd_pr__nfet_01v8 ad=0.0742 pd=0.91333 as=0.0833 ps=0.85824 w=0.42 l=0.15
**devattr s=2268,138 d=2268,138
X62 a_7476_1753# a_6885_1783# a_7701_2145# sky130_fd_sc_hd__mux4_1_0.VNB sky130_fd_pr__nfet_01v8 ad=0.0693 pd=0.75 as=0.0441 ps=0.63 w=0.42 l=0.15
**devattr s=1764,126 d=2772,150
X63 VDPWR VDPWR a_4763_14775# w_4440_14739# sky130_fd_pr__pfet_01v8_hvt ad=0.20702 pd=2.00005 as=0.17667 ps=1.68667 w=1 l=0.15
**devattr s=5400,254 d=10400,504
X64 a_11291_12911# a_10937_12911# VDPWR w_10872_13125# sky130_fd_pr__pfet_01v8_hvt ad=0.26 pd=2.52 as=0.20702 ps=2.00005 w=1 l=0.15
**devattr s=5689,267 d=10400,504
X65 a_8232_2145# VGND VGND sky130_fd_sc_hd__mux4_1_0.VNB sky130_fd_pr__nfet_01v8 ad=0.0742 pd=0.91333 as=0.0833 ps=0.85824 w=0.42 l=0.15
**devattr s=2268,138 d=2268,138
X66 a_7869_1779# a_7815_2035# a_7476_1753# w_7324_1694# sky130_fd_pr__pfet_01v8_hvt ad=0.05932 pd=0.7025 as=0.0693 ps=0.75 w=0.42 l=0.15
**devattr s=2772,150 d=2478,143
X67 a_5831_2149# VDPWR a_5735_2149# sky130_fd_sc_hd__mux4_1_0.VNB sky130_fd_pr__nfet_01v8 ad=0.0441 pd=0.63 as=0.0693 ps=0.75 w=0.42 l=0.15
**devattr s=2772,150 d=1764,126
X68 a_4913_13781# a_4635_13809# VGND sky130_fd_sc_hd__mux4_1_0.VNB sky130_fd_pr__nfet_01v8 ad=0.182 pd=1.86 as=0.12891 ps=1.32823 w=0.65 l=0.15
**devattr s=4472,208 d=7280,372
X69 a_10813_13753# a_9799_16073# VDPWR w_10748_13967# sky130_fd_pr__pfet_01v8_hvt ad=0.06615 pd=0.735 as=0.08695 ps=0.84002 w=0.42 l=0.15
**devattr s=3108,158 d=2352,140
X70 a_5735_1783# VGND VDPWR w_5454_1698# sky130_fd_pr__pfet_01v8_hvt ad=0.0693 pd=0.75 as=0.08695 ps=0.84002 w=0.42 l=0.15
**devattr s=5914,269 d=2772,150
X71 VGND VDPWR a_9725_5837# sky130_fd_sc_hd__mux4_1_0.VNB sky130_fd_pr__nfet_01v8 ad=0.0833 pd=0.85824 as=0.05932 ps=0.7025 w=0.42 l=0.15
**devattr s=2268,138 d=4368,272
X72 VDPWR a_11202_5441# a_11150_5467# w_11050_5382# sky130_fd_pr__pfet_01v8_hvt ad=0.20702 pd=2.00005 as=0.26 ps=2.52 w=1 l=0.15
**devattr s=10400,504 d=5914,269
X73 a_11499_2029# a_10569_1777# a_11916_2139# sky130_fd_sc_hd__mux4_1_0.VNB sky130_fd_pr__nfet_01v8 ad=0.0567 pd=0.69 as=0.0742 ps=0.91333 w=0.42 l=0.15
**devattr s=2268,138 d=2268,138
X74 a_11986_4593# VGND VDPWR w_11078_4508# sky130_fd_pr__pfet_01v8_hvt ad=0.0742 pd=0.91333 as=0.08695 ps=0.84002 w=0.42 l=0.15
**devattr s=2268,138 d=2268,138
X75 VDPWR VDPWR a_9727_11527# w_9404_11491# sky130_fd_pr__pfet_01v8_hvt ad=0.20702 pd=2.00005 as=0.17667 ps=1.68667 w=1 l=0.15
**devattr s=5400,254 d=10400,504
X76 a_9753_4597# VDPWR VDPWR w_9208_4512# sky130_fd_pr__pfet_01v8_hvt ad=0.05932 pd=0.7025 as=0.08695 ps=0.84002 w=0.42 l=0.15
**devattr s=2268,138 d=2268,138
X77 a_4723_10577# VGND a_4637_10577# sky130_fd_sc_hd__mux4_1_0.VNB sky130_fd_pr__nfet_01v8 ad=0.0567 pd=0.69 as=0.1176 ps=1.4 w=0.42 l=0.15
**devattr s=4704,280 d=2268,138
X78 VDPWR VDPWR a_11623_4593# w_11078_4508# sky130_fd_pr__pfet_01v8_hvt ad=0.08695 pd=0.84002 as=0.05932 ps=0.7025 w=0.42 l=0.15
**devattr s=2268,138 d=4368,272
X79 a_4587_13107# VDPWR a_4505_13107# w_4432_13071# sky130_fd_pr__pfet_01v8_hvt ad=0.135 pd=1.27 as=0.26 ps=2.52 w=1 l=0.15
**devattr s=10400,504 d=5400,254
X80 a_2079_5051# VGND VDPWR w_1798_4966# sky130_fd_pr__pfet_01v8_hvt ad=0.0693 pd=0.75 as=0.08695 ps=0.84002 w=0.42 l=0.15
**devattr s=5914,269 d=2772,150
X81 VGND a_9360_4571# a_9308_4597# sky130_fd_sc_hd__mux4_1_0.VNB sky130_fd_pr__nfet_01v8 ad=0.12891 pd=1.32823 as=0.169 ps=1.82 w=0.65 l=0.15
**devattr s=6760,364 d=4094,199
X82 VDPWR VDPWR a_9599_10561# w_9502_10747# sky130_fd_pr__pfet_01v8_hvt ad=0.08695 pd=0.84002 as=0.0567 ps=0.69 w=0.42 l=0.15
**devattr s=2268,138 d=6662,278
X83 a_11331_5467# VGND VDPWR w_11050_5382# sky130_fd_pr__pfet_01v8_hvt ad=0.0693 pd=0.75 as=0.08695 ps=0.84002 w=0.42 l=0.15
**devattr s=5914,269 d=2772,150
X84 a_4597_11543# VDPWR a_4515_11543# w_4442_11507# sky130_fd_pr__pfet_01v8_hvt ad=0.135 pd=1.27 as=0.26 ps=2.52 w=1 l=0.15
**devattr s=10400,504 d=5400,254
X85 a_6944_13645# a_6329_12927# a_6862_13645# w_6756_13609# sky130_fd_pr__pfet_01v8_hvt ad=0.0441 pd=0.63 as=0.1092 ps=1.36 w=0.42 l=0.15
**devattr s=4368,272 d=1764,126
X86 a_7669_14003# a_7173_15235# VGND sky130_fd_sc_hd__mux4_1_0.VNB sky130_fd_pr__nfet_01v8 ad=0.063 pd=0.72 as=0.0833 ps=0.85824 w=0.42 l=0.15
**devattr s=2268,138 d=2268,138
X87 a_9467_13091# VDPWR VGND sky130_fd_sc_hd__mux4_1_0.VNB sky130_fd_pr__nfet_01v8 ad=0.08775 pd=0.92 as=0.12891 ps=1.32823 w=0.65 l=0.15
**devattr s=6760,364 d=3510,184
X88 a_16195_4585# a_15255_4841# a_14946_4905# sky130_fd_sc_hd__mux4_1_0.VNB sky130_fd_pr__nfet_01v8 ad=0.169 pd=1.82 as=0.11427 ps=1.24175 w=0.65 l=0.15
**devattr s=4094,199 d=6760,364
X89 VDPWR VGND a_11595_5467# w_11050_5382# sky130_fd_pr__pfet_01v8_hvt ad=0.08695 pd=0.84002 as=0.05932 ps=0.7025 w=0.42 l=0.15
**devattr s=2478,143 d=2268,138
X90 a_4635_13809# VGND VDPWR w_4538_13995# sky130_fd_pr__pfet_01v8_hvt ad=0.0567 pd=0.69 as=0.08695 ps=0.84002 w=0.42 l=0.15
**devattr s=4704,280 d=2268,138
X91 a_2706_5417# VGND VGND sky130_fd_sc_hd__mux4_1_0.VNB sky130_fd_pr__nfet_01v8 ad=0.0742 pd=0.91333 as=0.0833 ps=0.85824 w=0.42 l=0.15
**devattr s=2268,138 d=2268,138
X92 VDPWR VGND a_2343_5051# w_1798_4966# sky130_fd_pr__pfet_01v8_hvt ad=0.08695 pd=0.84002 as=0.05932 ps=0.7025 w=0.42 l=0.15
**devattr s=2478,143 d=2268,138
X93 a_15281_5459# a_14297_5463# VDPWR w_14736_5374# sky130_fd_pr__pfet_01v8_hvt ad=0.05932 pd=0.7025 as=0.08695 ps=0.84002 w=0.42 l=0.15
**devattr s=2268,138 d=2268,138
X94 VGND a_4513_14775# a_4847_14525# sky130_fd_sc_hd__mux4_1_0.VNB sky130_fd_pr__nfet_01v8 ad=0.12891 pd=1.32823 as=0.25025 ps=1.42 w=0.65 l=0.15
**devattr s=10010,284 d=8320,388
X95 a_5975_5299# a_5099_5047# a_6392_5409# sky130_fd_sc_hd__mux4_1_0.VNB sky130_fd_pr__nfet_01v8 ad=0.0567 pd=0.69 as=0.0742 ps=0.91333 w=0.42 l=0.15
**devattr s=2268,138 d=2268,138
X96 VGND a_4503_16339# a_4837_16089# sky130_fd_sc_hd__mux4_1_0.VNB sky130_fd_pr__nfet_01v8 ad=0.12891 pd=1.32823 as=0.25025 ps=1.42 w=0.65 l=0.15
**devattr s=10010,284 d=8320,388
X97 VGND a_9475_14759# a_9809_14509# sky130_fd_sc_hd__mux4_1_0.VNB sky130_fd_pr__nfet_01v8 ad=0.12891 pd=1.32823 as=0.25025 ps=1.42 w=0.65 l=0.15
**devattr s=10010,284 d=8320,388
X98 a_13315_2025# a_12439_1773# a_13732_2135# sky130_fd_sc_hd__mux4_1_0.VNB sky130_fd_pr__nfet_01v8 ad=0.0567 pd=0.69 as=0.0742 ps=0.91333 w=0.42 l=0.15
**devattr s=2268,138 d=2268,138
X99 VGND VDPWR a_4576_5413# sky130_fd_sc_hd__mux4_1_0.VNB sky130_fd_pr__nfet_01v8 ad=0.0833 pd=0.85824 as=0.0742 ps=0.91333 w=0.42 l=0.15
**devattr s=4368,272 d=2268,138
X100 VGND VGND a_10422_5837# sky130_fd_sc_hd__mux4_1_0.VNB sky130_fd_pr__nfet_01v8 ad=0.0833 pd=0.85824 as=0.063 ps=0.72 w=0.42 l=0.15
**devattr s=2520,144 d=4094,199
X101 a_6029_5043# a_5975_5299# a_5636_5017# w_5484_4958# sky130_fd_pr__pfet_01v8_hvt ad=0.05932 pd=0.7025 as=0.0693 ps=0.75 w=0.42 l=0.15
**devattr s=2772,150 d=2478,143
X102 a_12135_15219# a_11597_15219# VDPWR w_11532_15433# sky130_fd_pr__pfet_01v8_hvt ad=0.26 pd=2.52 as=0.20702 ps=2.00005 w=1 l=0.15
**devattr s=12498,336 d=10400,504
X103 a_15602_2131# VGND VGND sky130_fd_sc_hd__mux4_1_0.VNB sky130_fd_pr__nfet_01v8 ad=0.0742 pd=0.91333 as=0.0833 ps=0.85824 w=0.42 l=0.15
**devattr s=2268,138 d=2268,138
X104 VDPWR VGND a_4880_1787# w_3638_1702# sky130_fd_pr__pfet_01v8_hvt ad=0.08695 pd=0.84002 as=0.063 ps=0.72 w=0.42 l=0.15
**devattr s=2520,144 d=5914,269
X105 VGND a_8785_5039# a_16871_4938# sky130_fd_sc_hd__mux4_1_0.VNB sky130_fd_pr__nfet_01v8 ad=0.0833 pd=0.85824 as=0.1092 ps=1.36 w=0.42 l=0.15
**devattr s=4368,272 d=5796,222
X106 a_11385_1773# VDPWR a_11289_1773# w_11008_1688# sky130_fd_pr__pfet_01v8_hvt ad=0.0441 pd=0.63 as=0.0693 ps=0.75 w=0.42 l=0.15
**devattr s=2772,150 d=1764,126
X107 VGND sky130_fd_sc_hd__mux4_1_0.A1 a_23511_14335# sky130_fd_sc_hd__mux4_1_0.VNB sky130_fd_pr__nfet_01v8 ad=0.0833 pd=0.85824 as=0.1092 ps=1.36 w=0.42 l=0.15
**devattr s=4368,272 d=2268,138
X108 VGND VGND a_4213_5413# sky130_fd_sc_hd__mux4_1_0.VNB sky130_fd_pr__nfet_01v8 ad=0.0833 pd=0.85824 as=0.05932 ps=0.7025 w=0.42 l=0.15
**devattr s=2478,143 d=2268,138
X109 VDPWR VGND a_14136_4589# w_12894_4504# sky130_fd_pr__pfet_01v8_hvt ad=0.08695 pd=0.84002 as=0.063 ps=0.72 w=0.42 l=0.15
**devattr s=2520,144 d=5914,269
X110 VGND VGND a_15978_5825# sky130_fd_sc_hd__mux4_1_0.VNB sky130_fd_pr__nfet_01v8 ad=0.0833 pd=0.85824 as=0.063 ps=0.72 w=0.42 l=0.15
**devattr s=2520,144 d=4094,199
X111 a_6805_15235# a_4847_14525# a_6717_15235# sky130_fd_sc_hd__mux4_1_0.VNB sky130_fd_pr__nfet_01v8 ad=0.0798 pd=0.8 as=0.0609 ps=0.71 w=0.42 l=0.15
**devattr s=2436,142 d=3192,160
X112 a_7899_5405# a_6915_5043# VGND sky130_fd_sc_hd__mux4_1_0.VNB sky130_fd_pr__nfet_01v8 ad=0.05932 pd=0.7025 as=0.0833 ps=0.85824 w=0.42 l=0.15
**devattr s=2268,138 d=2268,138
X113 VDPWR VDPWR a_13411_5463# w_12866_5378# sky130_fd_pr__pfet_01v8_hvt ad=0.08695 pd=0.84002 as=0.05932 ps=0.7025 w=0.42 l=0.15
**devattr s=2268,138 d=4368,272
X114 a_15239_2131# a_14255_1769# VGND sky130_fd_sc_hd__mux4_1_0.VNB sky130_fd_pr__nfet_01v8 ad=0.05932 pd=0.7025 as=0.0833 ps=0.85824 w=0.42 l=0.15
**devattr s=2268,138 d=2268,138
X115 a_9727_11527# VGND VDPWR w_9404_11491# sky130_fd_pr__pfet_01v8_hvt ad=0.17667 pd=1.68667 as=0.20702 ps=2.00005 w=1 l=0.15
**devattr s=5400,254 d=5400,254
X116 a_1920_1765# a_2187_1765# a_2145_2157# sky130_fd_sc_hd__mux4_1_0.VNB sky130_fd_pr__nfet_01v8 ad=0.0693 pd=0.75 as=0.0441 ps=0.63 w=0.42 l=0.15
**devattr s=1764,126 d=2772,150
X117 a_14325_4589# a_13385_4845# VDPWR w_12894_4504# sky130_fd_pr__pfet_01v8_hvt ad=0.26 pd=2.52 as=0.20702 ps=2.00005 w=1 l=0.15
**devattr s=5914,269 d=10400,504
X118 VDPWR a_11230_4567# a_11178_4593# w_11078_4508# sky130_fd_pr__pfet_01v8_hvt ad=0.20702 pd=2.00005 as=0.26 ps=2.52 w=1 l=0.15
**devattr s=10400,504 d=5914,269
X119 VGND VDPWR a_9753_4963# sky130_fd_sc_hd__mux4_1_0.VNB sky130_fd_pr__nfet_01v8 ad=0.0833 pd=0.85824 as=0.05932 ps=0.7025 w=0.42 l=0.15
**devattr s=2268,138 d=4368,272
X120 a_16486_16197# sky130_fd_sc_hd__mux4_1_0.A0 VDPWR w_16298_16411# sky130_fd_pr__pfet_01v8_hvt ad=0.26 pd=2.52 as=0.20702 ps=2.00005 w=1 l=0.15
**devattr s=10400,504 d=10400,504
X121 a_4546_1787# VGND VDPWR w_3638_1702# sky130_fd_pr__pfet_01v8_hvt ad=0.0742 pd=0.91333 as=0.08695 ps=0.84002 w=0.42 l=0.15
**devattr s=2268,138 d=2268,138
X122 a_23677_14701# ui_in[0] ui_in[1] sky130_fd_sc_hd__mux4_1_0.VPB sky130_fd_pr__pfet_01v8_hvt ad=0.10855 pd=1.36 as=0.0742 ps=0.91333 w=0.42 l=0.15
**devattr s=2268,138 d=4316,272
X123 a_4905_12113# a_4627_12141# VDPWR w_4530_12327# sky130_fd_pr__pfet_01v8_hvt ad=0.475 pd=2.95 as=0.20702 ps=2.00005 w=1 l=0.15
**devattr s=6662,278 d=19000,590
X124 a_4915_10549# a_4637_10577# VGND sky130_fd_sc_hd__mux4_1_0.VNB sky130_fd_pr__nfet_01v8 ad=0.182 pd=1.86 as=0.12891 ps=1.32823 w=0.65 l=0.15
**devattr s=4472,208 d=7280,372
X125 a_9461_5837# VGND VGND sky130_fd_sc_hd__mux4_1_0.VNB sky130_fd_pr__nfet_01v8 ad=0.0693 pd=0.75 as=0.0833 ps=0.85824 w=0.42 l=0.15
**devattr s=4094,199 d=2772,150
X126 a_14888_5433# a_14297_5463# a_15113_5825# sky130_fd_sc_hd__mux4_1_0.VNB sky130_fd_pr__nfet_01v8 ad=0.0693 pd=0.75 as=0.0441 ps=0.63 w=0.42 l=0.15
**devattr s=1764,126 d=2772,150
X127 a_7815_2035# a_6885_1783# a_8232_1779# w_7324_1694# sky130_fd_pr__pfet_01v8_hvt ad=0.0567 pd=0.69 as=0.0742 ps=0.91333 w=0.42 l=0.15
**devattr s=2268,138 d=2268,138
X128 a_7605_2145# VGND VGND sky130_fd_sc_hd__mux4_1_0.VNB sky130_fd_pr__nfet_01v8 ad=0.0693 pd=0.75 as=0.0833 ps=0.85824 w=0.42 l=0.15
**devattr s=4094,199 d=2772,150
X129 VDPWR a_9809_14509# a_11597_15219# w_11532_15433# sky130_fd_pr__pfet_01v8_hvt ad=0.08695 pd=0.84002 as=0.06615 ps=0.735 w=0.42 l=0.15
**devattr s=2940,154 d=3108,158
X130 a_6087_14735# a_5809_14763# VGND sky130_fd_sc_hd__mux4_1_0.VNB sky130_fd_pr__nfet_01v8 ad=0.182 pd=1.86 as=0.12891 ps=1.32823 w=0.65 l=0.15
**devattr s=4472,208 d=7280,372
X131 VGND a_6281_11907# a_7669_14003# sky130_fd_sc_hd__mux4_1_0.VNB sky130_fd_pr__nfet_01v8 ad=0.0833 pd=0.85824 as=0.063 ps=0.72 w=0.42 l=0.15
**devattr s=2772,150 d=2268,138
X132 VGND VDPWR a_2313_2157# sky130_fd_sc_hd__mux4_1_0.VNB sky130_fd_pr__nfet_01v8 ad=0.0833 pd=0.85824 as=0.05932 ps=0.7025 w=0.42 l=0.15
**devattr s=2268,138 d=4368,272
X133 VGND VDPWR a_11958_5833# sky130_fd_sc_hd__mux4_1_0.VNB sky130_fd_pr__nfet_01v8 ad=0.0833 pd=0.85824 as=0.0742 ps=0.91333 w=0.42 l=0.15
**devattr s=4368,272 d=2268,138
X134 a_13243_5829# VDPWR a_13147_5829# sky130_fd_sc_hd__mux4_1_0.VNB sky130_fd_pr__nfet_01v8 ad=0.0441 pd=0.63 as=0.0693 ps=0.75 w=0.42 l=0.15
**devattr s=2772,150 d=1764,126
X135 a_9683_2143# a_9629_2033# a_9290_1751# sky130_fd_sc_hd__mux4_1_0.VNB sky130_fd_pr__nfet_01v8 ad=0.05932 pd=0.7025 as=0.0693 ps=0.75 w=0.42 l=0.15
**devattr s=2772,150 d=2478,143
X136 VGND VGND a_9725_5837# sky130_fd_sc_hd__mux4_1_0.VNB sky130_fd_pr__nfet_01v8 ad=0.0833 pd=0.85824 as=0.05932 ps=0.7025 w=0.42 l=0.15
**devattr s=2478,143 d=2268,138
X137 a_15672_4585# a_14946_4905# VDPWR w_14764_4500# sky130_fd_pr__pfet_01v8_hvt ad=0.0742 pd=0.91333 as=0.08695 ps=0.84002 w=0.42 l=0.15
**devattr s=2268,138 d=2268,138
X138 a_13411_5463# a_13357_5719# a_13018_5437# w_12866_5378# sky130_fd_pr__pfet_01v8_hvt ad=0.05932 pd=0.7025 as=0.0693 ps=0.75 w=0.42 l=0.15
**devattr s=2772,150 d=2478,143
X139 VDPWR VGND a_3010_1791# w_1768_1706# sky130_fd_pr__pfet_01v8_hvt ad=0.08695 pd=0.84002 as=0.063 ps=0.72 w=0.42 l=0.15
**devattr s=2520,144 d=5914,269
X140 a_4183_2153# a_3199_1791# VGND sky130_fd_sc_hd__mux4_1_0.VNB sky130_fd_pr__nfet_01v8 ad=0.05932 pd=0.7025 as=0.0833 ps=0.85824 w=0.42 l=0.15
**devattr s=2268,138 d=2268,138
X141 a_5099_5047# a_4159_5303# VGND sky130_fd_sc_hd__mux4_1_0.VNB sky130_fd_pr__nfet_01v8 ad=0.169 pd=1.82 as=0.12891 ps=1.32823 w=0.65 l=0.15
**devattr s=4094,199 d=6760,364
X142 a_11553_2139# a_10569_1777# VGND sky130_fd_sc_hd__mux4_1_0.VNB sky130_fd_pr__nfet_01v8 ad=0.05932 pd=0.7025 as=0.0833 ps=0.85824 w=0.42 l=0.15
**devattr s=2268,138 d=2268,138
X143 VDPWR VGND a_11623_4593# w_11078_4508# sky130_fd_pr__pfet_01v8_hvt ad=0.08695 pd=0.84002 as=0.05932 ps=0.7025 w=0.42 l=0.15
**devattr s=2478,143 d=2268,138
X144 a_4763_14525# VGND VGND sky130_fd_sc_hd__mux4_1_0.VNB sky130_fd_pr__nfet_01v8 ad=0.08775 pd=0.92 as=0.12891 ps=1.32823 w=0.65 l=0.15
**devattr s=3510,184 d=3510,184
X145 a_15309_4585# a_14325_4589# VDPWR w_14764_4500# sky130_fd_pr__pfet_01v8_hvt ad=0.05932 pd=0.7025 as=0.08695 ps=0.84002 w=0.42 l=0.15
**devattr s=2268,138 d=2268,138
X146 a_24962_14701# ui_in[1] a_24234_14385# sky130_fd_sc_hd__mux4_1_0.VNB sky130_fd_pr__nfet_01v8 ad=0.15102 pd=1.285 as=0.0742 ps=0.91333 w=0.42 l=0.15
**devattr s=4368,272 d=6041,257
X147 a_4045_5047# VDPWR a_3949_5047# w_3668_4962# sky130_fd_pr__pfet_01v8_hvt ad=0.0441 pd=0.63 as=0.0693 ps=0.75 w=0.42 l=0.15
**devattr s=2772,150 d=1764,126
X148 a_2259_2047# a_2187_1765# a_2676_1791# w_1768_1706# sky130_fd_pr__pfet_01v8_hvt ad=0.0567 pd=0.69 as=0.0742 ps=0.91333 w=0.42 l=0.15
**devattr s=2268,138 d=2268,138
X149 VDPWR VGND a_13369_1769# w_12824_1684# sky130_fd_pr__pfet_01v8_hvt ad=0.08695 pd=0.84002 as=0.05932 ps=0.7025 w=0.42 l=0.15
**devattr s=2478,143 d=2268,138
X150 a_6696_1783# VDPWR a_5945_2039# w_5454_1698# sky130_fd_pr__pfet_01v8_hvt ad=0.063 pd=0.72 as=0.0567 ps=0.69 w=0.42 l=0.15
**devattr s=2268,138 d=2520,144
X151 VDPWR a_9290_1751# a_9238_1777# w_9138_1692# sky130_fd_pr__pfet_01v8_hvt ad=0.20702 pd=2.00005 as=0.26 ps=2.52 w=1 l=0.15
**devattr s=10400,504 d=5914,269
X152 a_1950_5025# a_2217_5025# a_2175_5417# sky130_fd_sc_hd__mux4_1_0.VNB sky130_fd_pr__nfet_01v8 ad=0.0693 pd=0.75 as=0.0441 ps=0.63 w=0.42 l=0.15
**devattr s=1764,126 d=2772,150
X153 a_12631_13987# a_9877_10533# VGND sky130_fd_sc_hd__mux4_1_0.VNB sky130_fd_pr__nfet_01v8 ad=0.063 pd=0.72 as=0.0833 ps=0.85824 w=0.42 l=0.15
**devattr s=4368,272 d=2772,150
X154 a_9589_12125# VGND VDPWR w_9492_12311# sky130_fd_pr__pfet_01v8_hvt ad=0.0567 pd=0.69 as=0.08695 ps=0.84002 w=0.42 l=0.15
**devattr s=4704,280 d=2268,138
X155 a_11906_13629# a_11291_12911# a_11824_13629# w_11718_13593# sky130_fd_pr__pfet_01v8_hvt ad=0.0441 pd=0.63 as=0.1092 ps=1.36 w=0.42 l=0.15
**devattr s=4368,272 d=1764,126
X156 VGND VDPWR a_6392_5409# sky130_fd_sc_hd__mux4_1_0.VNB sky130_fd_pr__nfet_01v8 ad=0.0833 pd=0.85824 as=0.0742 ps=0.91333 w=0.42 l=0.15
**devattr s=4368,272 d=2268,138
X157 sky130_fd_sc_hd__mux4_1_0.A2 a_15185_2021# VDPWR w_14694_1680# sky130_fd_pr__pfet_01v8_hvt ad=0.26 pd=2.52 as=0.20702 ps=2.00005 w=1 l=0.15
**devattr s=5914,269 d=10400,504
X158 a_9753_4597# a_9699_4853# a_9360_4571# w_9208_4512# sky130_fd_pr__pfet_01v8_hvt ad=0.05932 pd=0.7025 as=0.0693 ps=0.75 w=0.42 l=0.15
**devattr s=2772,150 d=2478,143
X159 VDPWR a_13018_5437# a_12966_5463# w_12866_5378# sky130_fd_pr__pfet_01v8_hvt ad=0.20702 pd=2.00005 as=0.26 ps=2.52 w=1 l=0.15
**devattr s=10400,504 d=5914,269
X160 VGND VDPWR a_13732_2135# sky130_fd_sc_hd__mux4_1_0.VNB sky130_fd_pr__nfet_01v8 ad=0.0833 pd=0.85824 as=0.0742 ps=0.91333 w=0.42 l=0.15
**devattr s=4368,272 d=2268,138
X161 a_6915_5043# a_5975_5299# VGND sky130_fd_sc_hd__mux4_1_0.VNB sky130_fd_pr__nfet_01v8 ad=0.169 pd=1.82 as=0.12891 ps=1.32823 w=0.65 l=0.15
**devattr s=4094,199 d=6760,364
X162 a_7635_5405# VGND VGND sky130_fd_sc_hd__mux4_1_0.VNB sky130_fd_pr__nfet_01v8 ad=0.0693 pd=0.75 as=0.0833 ps=0.85824 w=0.42 l=0.15
**devattr s=4094,199 d=2772,150
X163 a_12292_5467# VDPWR a_11541_5723# w_11050_5382# sky130_fd_pr__pfet_01v8_hvt ad=0.063 pd=0.72 as=0.0567 ps=0.69 w=0.42 l=0.15
**devattr s=2268,138 d=2520,144
X164 a_14946_4905# a_14946_4905# a_16006_4951# sky130_fd_sc_hd__mux4_1_0.VNB sky130_fd_pr__nfet_01v8 ad=0.07384 pd=0.80236 as=0.063 ps=0.72 w=0.42 l=0.15
**devattr s=2520,144 d=4094,199
X165 a_14975_2131# VGND VGND sky130_fd_sc_hd__mux4_1_0.VNB sky130_fd_pr__nfet_01v8 ad=0.0693 pd=0.75 as=0.0833 ps=0.85824 w=0.42 l=0.15
**devattr s=4094,199 d=2772,150
X166 a_15185_2021# a_14255_1769# a_15602_1765# w_14694_1680# sky130_fd_pr__pfet_01v8_hvt ad=0.0567 pd=0.69 as=0.0742 ps=0.91333 w=0.42 l=0.15
**devattr s=2268,138 d=2268,138
X167 VDPWR VGND a_9547_16323# w_9392_16287# sky130_fd_pr__pfet_01v8_hvt ad=0.20702 pd=2.00005 as=0.135 ps=1.27 w=1 l=0.15
**devattr s=5400,254 d=5400,254
X168 a_3040_5051# VDPWR a_2289_5307# w_1798_4966# sky130_fd_pr__pfet_01v8_hvt ad=0.063 pd=0.72 as=0.0567 ps=0.69 w=0.42 l=0.15
**devattr s=2268,138 d=2520,144
X169 a_13201_1769# VDPWR a_13105_1769# w_12824_1684# sky130_fd_pr__pfet_01v8_hvt ad=0.0441 pd=0.63 as=0.0693 ps=0.75 w=0.42 l=0.15
**devattr s=2772,150 d=1764,126
X170 a_8755_1779# a_7815_2035# VGND sky130_fd_sc_hd__mux4_1_0.VNB sky130_fd_pr__nfet_01v8 ad=0.169 pd=1.82 as=0.12891 ps=1.32823 w=0.65 l=0.15
**devattr s=4094,199 d=6760,364
X171 a_5895_14763# a_4849_11293# a_5809_14763# sky130_fd_sc_hd__mux4_1_0.VNB sky130_fd_pr__nfet_01v8 ad=0.0567 pd=0.69 as=0.1176 ps=1.4 w=0.42 l=0.15
**devattr s=4704,280 d=2268,138
X172 VGND VGND a_9475_14759# sky130_fd_sc_hd__mux4_1_0.VNB sky130_fd_pr__nfet_01v8 ad=0.12891 pd=1.32823 as=0.08775 ps=0.92 w=0.65 l=0.15
**devattr s=3510,184 d=3510,184