* NGSPICE file created from tt_um_ohmy90_flat_adders.ext - technology: sky130A

.subckt tt_um_ohmy90_flat_adders clk ena rst_n ua[0] ua[1] ua[2] ua[3] ua[4] ua[5]
+ ua[6] ua[7] ui_in[0] ui_in[1] ui_in[2] ui_in[3] ui_in[4] ui_in[5] ui_in[6] ui_in[7]
+ uio_in[0] uio_in[1] uio_in[2] uio_in[3] uio_in[4] uio_in[5] uio_in[6] uio_in[7]
+ uio_oe[0] uio_oe[1] uio_oe[2] uio_oe[3] uio_oe[4] uio_oe[5] uio_oe[6] uio_oe[7]
+ uio_out[0] uio_out[1] uio_out[2] uio_out[3] uio_out[4] uio_out[5] uio_out[6] uio_out[7]
+ uo_out[0] uo_out[1] uo_out[2] uo_out[3] uo_out[4] uo_out[5] uo_out[6] uo_out[7]
+ VDPWR VGND
X0 VDPWR VGND a_12281_1793# VDPWR sky130_fd_pr__pfet_01v8_hvt ad=0.08707 pd=0.84121 as=0.05932 ps=0.7025 w=0.42 l=0.15
**devattr s=2478,143 d=2268,138
X1 VDPWR a_9703_16093# a_11501_15239# VDPWR sky130_fd_pr__pfet_01v8_hvt ad=0.08707 pd=0.84121 as=0.06615 ps=0.735 w=0.42 l=0.15
**devattr s=2352,140 d=12498,336
X2 a_24234_14385# ui_in[0] a_24152_14385# VGND sky130_fd_pr__nfet_01v8 ad=0.0742 pd=0.91333 as=0.10855 ps=1.36 w=0.42 l=0.15
**devattr s=4368,272 d=2268,138
X3 VGND a_9381_11547# VGND VGND sky130_fd_pr__nfet_01v8 ad=0.13063 pd=1.32737 as=0.13063 ps=1.32737 w=0.65 l=0.15
**devattr d=10010,284
X4 a_16793_4785# a_15711_4547# a_17210_4895# VGND sky130_fd_pr__nfet_01v8 ad=0.0567 pd=0.69 as=0.0742 ps=0.91333 w=0.42 l=0.15
**devattr s=2268,138 d=2268,138
X5 VDPWR VGND a_16539_5473# VDPWR sky130_fd_pr__pfet_01v8_hvt ad=0.08707 pd=0.84121 as=0.05932 ps=0.7025 w=0.42 l=0.15
**devattr s=2478,143 d=2268,138
X6 a_16679_4895# VDPWR a_16583_4895# VGND sky130_fd_pr__nfet_01v8 ad=0.0441 pd=0.63 as=0.0693 ps=0.75 w=0.42 l=0.15
**devattr s=2772,150 d=1764,126
X7 a_4711_15373# VGND a_4625_15373# VGND sky130_fd_pr__nfet_01v8 ad=0.0567 pd=0.69 as=0.1176 ps=1.4 w=0.42 l=0.15
**devattr s=4704,280 d=2268,138
X8 a_5174_5409# VDPWR a_4423_5299# VGND sky130_fd_pr__nfet_01v8 ad=0.063 pd=0.72 as=0.0567 ps=0.69 w=0.42 l=0.15
**devattr s=2268,138 d=2520,144
X9 a_18625_4938# a_17733_4529# a_18553_4938# VDPWR sky130_fd_pr__pfet_01v8_hvt ad=0.1932 pd=1.34 as=0.0441 ps=0.63 w=0.42 l=0.15
**devattr s=1764,126 d=7728,268
X10 VGND VGND a_9369_16343# VGND sky130_fd_pr__nfet_01v8 ad=0.13063 pd=1.32737 as=0.08775 ps=0.92 w=0.65 l=0.15
**devattr s=3510,184 d=3510,184
X11 VDPWR VGND a_2313_1791# VDPWR sky130_fd_pr__pfet_01v8_hvt ad=0.08707 pd=0.84121 as=0.05932 ps=0.7025 w=0.42 l=0.15
**devattr s=2478,143 d=2268,138
X12 a_12533_5715# a_11411_5471# a_12950_5825# VGND sky130_fd_pr__nfet_01v8 ad=0.0567 pd=0.69 as=0.0742 ps=0.91333 w=0.42 l=0.15
**devattr s=2268,138 d=2268,138
X13 a_14545_5467# a_14491_5723# a_14152_5441# VDPWR sky130_fd_pr__pfet_01v8_hvt ad=0.05932 pd=0.7025 as=0.0693 ps=0.75 w=0.42 l=0.15
**devattr s=2772,150 d=2478,143
X14 a_1950_5025# a_2217_5025# a_2175_5051# VDPWR sky130_fd_pr__pfet_01v8_hvt ad=0.0693 pd=0.75 as=0.0441 ps=0.63 w=0.42 l=0.15
**devattr s=1764,126 d=2772,150
X15 a_12419_5825# VDPWR a_12323_5825# VGND sky130_fd_pr__nfet_01v8 ad=0.0441 pd=0.63 as=0.0693 ps=0.75 w=0.42 l=0.15
**devattr s=2772,150 d=1764,126
X16 VDPWR a_12194_5433# a_12142_5459# VDPWR sky130_fd_pr__pfet_01v8_hvt ad=0.20731 pd=2.00287 as=0.26 ps=2.52 w=1 l=0.15
**devattr s=10400,504 d=5914,269
X17 a_16033_2159# VGND VGND VGND sky130_fd_pr__nfet_01v8 ad=0.0693 pd=0.75 as=0.08441 ps=0.85768 w=0.42 l=0.15
**devattr s=4094,199 d=2772,150
X18 a_17236_5839# VDPWR a_16485_5729# VGND sky130_fd_pr__nfet_01v8 ad=0.063 pd=0.72 as=0.0567 ps=0.69 w=0.42 l=0.15
**devattr s=2268,138 d=2520,144
X19 a_4513_14775# VDPWR VGND VGND sky130_fd_pr__nfet_01v8 ad=0.08775 pd=0.92 as=0.13063 ps=1.32737 w=0.65 l=0.15
**devattr s=6760,364 d=3510,184
X20 a_6129_12927# a_4913_13781# a_6057_12927# VGND sky130_fd_pr__nfet_01v8 ad=0.0441 pd=0.63 as=0.0441 ps=0.63 w=0.42 l=0.15
**devattr s=1764,126 d=1764,126
X21 VGND VGND a_16297_2159# VGND sky130_fd_pr__nfet_01v8 ad=0.08441 pd=0.85768 as=0.05932 ps=0.7025 w=0.42 l=0.15
**devattr s=2478,143 d=2268,138
X22 VGND a_9381_11547# a_9631_11547# VDPWR sky130_fd_pr__pfet_01v8_hvt ad=3.156 pd=47.08 as=0.17667 ps=1.68667 w=1 l=0.15
**devattr s=10400,504 d=12000,520
X23 a_7113_13395# a_6862_13645# VGND VGND sky130_fd_pr__nfet_01v8 ad=0.169 pd=1.82 as=0.13063 ps=1.32737 w=0.65 l=0.15
**devattr s=4010,197 d=6760,364
X24 a_12323_5459# VGND VDPWR VDPWR sky130_fd_pr__pfet_01v8_hvt ad=0.0693 pd=0.75 as=0.08707 ps=0.84121 w=0.42 l=0.15
**devattr s=5914,269 d=2772,150
X25 a_11255_13773# a_10717_13773# VDPWR VDPWR sky130_fd_pr__pfet_01v8_hvt ad=0.26 pd=2.52 as=0.20731 ps=2.00287 w=1 l=0.15
**devattr s=12498,336 d=10400,504
X26 VDPWR VGND a_7032_1787# VDPWR sky130_fd_pr__pfet_01v8_hvt ad=0.08707 pd=0.84121 as=0.063 ps=0.72 w=0.42 l=0.15
**devattr s=2520,144 d=5914,269
X27 a_11501_15239# a_8193_13753# VDPWR VDPWR sky130_fd_pr__pfet_01v8_hvt ad=0.06615 pd=0.735 as=0.08707 ps=0.84121 w=0.42 l=0.15
**devattr s=4368,272 d=2940,154
X28 a_4383_2153# a_4329_2043# a_3990_1761# VGND sky130_fd_pr__nfet_01v8 ad=0.05932 pd=0.7025 as=0.0693 ps=0.75 w=0.42 l=0.15
**devattr s=2772,150 d=2478,143
X29 a_14281_5833# VGND VGND VGND sky130_fd_pr__nfet_01v8 ad=0.0693 pd=0.75 as=0.08441 ps=0.85768 w=0.42 l=0.15
**devattr s=4094,199 d=2772,150
X30 VDPWR VGND a_4587_13107# VDPWR sky130_fd_pr__pfet_01v8_hvt ad=0.20731 pd=2.00287 as=0.135 ps=1.27 w=1 l=0.15
**devattr s=5400,254 d=5400,254
X31 a_9631_11297# VGND VGND VGND sky130_fd_pr__nfet_01v8 ad=0.08775 pd=0.92 as=0.13063 ps=1.32737 w=0.65 l=0.15
**devattr s=3510,184 d=3510,184
X32 a_8169_1793# VDPWR a_8073_1793# VDPWR sky130_fd_pr__pfet_01v8_hvt ad=0.0441 pd=0.63 as=0.0693 ps=0.75 w=0.42 l=0.15
**devattr s=2772,150 d=1764,126
X33 a_14771_4803# a_13709_4553# a_15188_4547# VDPWR sky130_fd_pr__pfet_01v8_hvt ad=0.0567 pd=0.69 as=0.0742 ps=0.91333 w=0.42 l=0.15
**devattr s=2268,138 d=2268,138
X34 a_22274_16171# a_21506_16181# VDPWR VDPWR sky130_fd_pr__pfet_01v8_hvt ad=0.26 pd=2.52 as=0.20731 ps=2.00287 w=1 l=0.15
**devattr s=10400,504 d=10400,504
X35 a_2175_5417# VDPWR a_2079_5417# VGND sky130_fd_pr__nfet_01v8 ad=0.0441 pd=0.63 as=0.0693 ps=0.75 w=0.42 l=0.15
**devattr s=2772,150 d=1764,126
X36 a_6089_11935# VGND a_6003_11935# VGND sky130_fd_pr__nfet_01v8 ad=0.0567 pd=0.69 as=0.1176 ps=1.4 w=0.42 l=0.15
**devattr s=4704,280 d=2268,138
X37 VDPWR VDPWR a_14596_1793# VDPWR sky130_fd_pr__pfet_01v8_hvt ad=0.08707 pd=0.84121 as=0.0742 ps=0.91333 w=0.42 l=0.15
**devattr s=4368,272 d=2268,138
X38 VGND a_11888_1767# a_11836_1793# VGND sky130_fd_pr__nfet_01v8 ad=0.13063 pd=1.32737 as=0.169 ps=1.82 w=0.65 l=0.15
**devattr s=6760,364 d=4094,199
X39 a_10289_2159# a_10235_2049# a_9896_1767# VGND sky130_fd_pr__nfet_01v8 ad=0.05932 pd=0.7025 as=0.0693 ps=0.75 w=0.42 l=0.15
**devattr s=2772,150 d=2478,143
X40 a_12697_14007# a_9781_10553# a_12615_14007# VDPWR sky130_fd_pr__pfet_01v8_hvt ad=0.0693 pd=0.75 as=0.1092 ps=1.36 w=0.42 l=0.15
**devattr s=4368,272 d=2772,150
X41 VDPWR VGND a_4597_11543# VDPWR sky130_fd_pr__pfet_01v8_hvt ad=0.20731 pd=2.00287 as=0.135 ps=1.27 w=1 l=0.15
**devattr s=5400,254 d=5400,254
X42 a_7221_1787# a_6281_2043# VDPWR VDPWR sky130_fd_pr__pfet_01v8_hvt ad=0.26 pd=2.52 as=0.20731 ps=2.00287 w=1 l=0.15
**devattr s=5914,269 d=10400,504
X43 VDPWR VDPWR a_9491_15377# VDPWR sky130_fd_pr__pfet_01v8_hvt ad=0.08707 pd=0.84121 as=0.0567 ps=0.69 w=0.42 l=0.15
**devattr s=2268,138 d=6662,278
X44 VDPWR VDPWR a_6792_5043# VDPWR sky130_fd_pr__pfet_01v8_hvt ad=0.08707 pd=0.84121 as=0.0742 ps=0.91333 w=0.42 l=0.15
**devattr s=4368,272 d=2268,138
X45 VDPWR VDPWR a_14825_4547# VDPWR sky130_fd_pr__pfet_01v8_hvt ad=0.08707 pd=0.84121 as=0.05932 ps=0.7025 w=0.42 l=0.15
**devattr s=2268,138 d=4368,272
X46 a_12644_2159# VGND VGND VGND sky130_fd_pr__nfet_01v8 ad=0.0742 pd=0.91333 as=0.08441 ps=0.85768 w=0.42 l=0.15
**devattr s=2268,138 d=2268,138
X47 VDPWR VDPWR a_16660_1793# VDPWR sky130_fd_pr__pfet_01v8_hvt ad=0.08707 pd=0.84121 as=0.0742 ps=0.91333 w=0.42 l=0.15
**devattr s=4368,272 d=2268,138
X48 VDPWR VDPWR a_16847_4529# VDPWR sky130_fd_pr__pfet_01v8_hvt ad=0.08707 pd=0.84121 as=0.05932 ps=0.7025 w=0.42 l=0.15
**devattr s=2268,138 d=4368,272
X49 a_9629_14779# VGND VDPWR VDPWR sky130_fd_pr__pfet_01v8_hvt ad=0.17667 pd=1.68667 as=0.20731 ps=2.00287 w=1 l=0.15
**devattr s=5400,254 d=5400,254
X50 a_10525_5837# a_10471_5727# a_10132_5445# VGND sky130_fd_pr__nfet_01v8 ad=0.05932 pd=0.7025 as=0.0693 ps=0.75 w=0.42 l=0.15
**devattr s=2772,150 d=2478,143
X51 VDPWR VGND a_14233_1793# VDPWR sky130_fd_pr__pfet_01v8_hvt ad=0.08707 pd=0.84121 as=0.05932 ps=0.7025 w=0.42 l=0.15
**devattr s=2478,143 d=2268,138
X52 a_5942_1761# a_5269_1787# a_6167_2153# VGND sky130_fd_pr__nfet_01v8 ad=0.0693 pd=0.75 as=0.0441 ps=0.63 w=0.42 l=0.15
**devattr s=1764,126 d=2772,150
X53 sky130_fd_sc_hd__mux4_1_0.A3 a_18625_4938# VDPWR VDPWR sky130_fd_pr__pfet_01v8_hvt ad=0.26 pd=2.52 as=0.20731 ps=2.00287 w=1 l=0.15
**devattr s=6334,279 d=10400,504
X54 VDPWR VDPWR a_10289_1793# VDPWR sky130_fd_pr__pfet_01v8_hvt ad=0.08707 pd=0.84121 as=0.05932 ps=0.7025 w=0.42 l=0.15
**devattr s=2268,138 d=4368,272
X55 VGND a_1920_1765# a_1868_1791# VGND sky130_fd_pr__nfet_01v8 ad=0.13063 pd=1.32737 as=0.169 ps=1.82 w=0.65 l=0.15
**devattr s=6760,364 d=4094,199
X56 a_8038_5023# a_7315_5043# a_8263_5049# VDPWR sky130_fd_pr__pfet_01v8_hvt ad=0.0693 pd=0.75 as=0.0441 ps=0.63 w=0.42 l=0.15
**devattr s=1764,126 d=2772,150
X57 VDPWR sky130_fd_sc_hd__mux4_1_0.A1 a_6629_15387# VDPWR sky130_fd_pr__pfet_01v8_hvt ad=0.20731 pd=2.00287 as=0.26 ps=2.52 w=1 l=0.15
**devattr s=10400,504 d=10400,504
X58 a_7126_5409# VDPWR a_6375_5299# VGND sky130_fd_pr__nfet_01v8 ad=0.063 pd=0.72 as=0.0567 ps=0.69 w=0.42 l=0.15
**devattr s=2268,138 d=2520,144
X59 VDPWR VDPWR a_4753_16339# VDPWR sky130_fd_pr__pfet_01v8_hvt ad=0.20731 pd=2.00287 as=0.17667 ps=1.68667 w=1 l=0.15
**devattr s=5400,254 d=10400,504
X60 VGND VGND a_5174_5409# VGND sky130_fd_pr__nfet_01v8 ad=0.08441 pd=0.85768 as=0.063 ps=0.72 w=0.42 l=0.15
**devattr s=2520,144 d=4094,199
X61 a_12769_4809# a_11439_4597# a_13186_4553# VDPWR sky130_fd_pr__pfet_01v8_hvt ad=0.0567 pd=0.69 as=0.0742 ps=0.91333 w=0.42 l=0.15
**devattr s=2268,138 d=2268,138
X62 VDPWR VDPWR a_4746_1787# VDPWR sky130_fd_pr__pfet_01v8_hvt ad=0.08707 pd=0.84121 as=0.0742 ps=0.91333 w=0.42 l=0.15
**devattr s=4368,272 d=2268,138
X63 VDPWR VDPWR a_8431_5049# VDPWR sky130_fd_pr__pfet_01v8_hvt ad=0.08707 pd=0.84121 as=0.05932 ps=0.7025 w=0.42 l=0.15
**devattr s=2268,138 d=4368,272
X64 a_4903_15345# a_4625_15373# VGND VGND sky130_fd_pr__nfet_01v8 ad=0.182 pd=1.86 as=0.13063 ps=1.32737 w=0.65 l=0.15
**devattr s=4472,208 d=7280,372
X65 VDPWR VDPWR a_4763_14775# VDPWR sky130_fd_pr__pfet_01v8_hvt ad=0.20731 pd=2.00287 as=0.17667 ps=1.68667 w=1 l=0.15
**devattr s=5400,254 d=10400,504
X66 VDPWR VDPWR a_12823_4553# VDPWR sky130_fd_pr__pfet_01v8_hvt ad=0.08707 pd=0.84121 as=0.05932 ps=0.7025 w=0.42 l=0.15
**devattr s=2268,138 d=4368,272
X67 a_13520_4919# VDPWR a_12769_4809# VGND sky130_fd_pr__nfet_01v8 ad=0.063 pd=0.72 as=0.0567 ps=0.69 w=0.42 l=0.15
**devattr s=2268,138 d=2520,144
X68 a_4913_13781# a_4635_13809# VGND VGND sky130_fd_pr__nfet_01v8 ad=0.182 pd=1.86 as=0.13063 ps=1.32737 w=0.65 l=0.15
**devattr s=4472,208 d=7280,372
X69 VGND VDPWR a_17210_4895# VGND sky130_fd_pr__nfet_01v8 ad=0.08441 pd=0.85768 as=0.0742 ps=0.91333 w=0.42 l=0.15
**devattr s=4368,272 d=2268,138
X70 a_10160_4571# VDPWR a_10385_4963# VGND sky130_fd_pr__nfet_01v8 ad=0.0693 pd=0.75 as=0.0441 ps=0.63 w=0.42 l=0.15
**devattr s=1764,126 d=2772,150
X71 a_4084_5017# a_3229_5051# a_4309_5409# VGND sky130_fd_pr__nfet_01v8 ad=0.0693 pd=0.75 as=0.0441 ps=0.63 w=0.42 l=0.15
**devattr s=1764,126 d=2772,150
X72 VGND VGND a_14930_2159# VGND sky130_fd_pr__nfet_01v8 ad=0.08441 pd=0.85768 as=0.063 ps=0.72 w=0.42 l=0.15
**devattr s=2520,144 d=4094,199
X73 a_16847_4895# a_15711_4547# VGND VGND sky130_fd_pr__nfet_01v8 ad=0.05932 pd=0.7025 as=0.08441 ps=0.85768 w=0.42 l=0.15
**devattr s=2268,138 d=2268,138
X74 a_4723_10577# VGND a_4637_10577# VGND sky130_fd_pr__nfet_01v8 ad=0.0567 pd=0.69 as=0.1176 ps=1.4 w=0.42 l=0.15
**devattr s=4704,280 d=2268,138
X75 a_15431_5467# a_14491_5723# VGND VGND sky130_fd_pr__nfet_01v8 ad=0.169 pd=1.82 as=0.13063 ps=1.32737 w=0.65 l=0.15
**devattr s=4094,199 d=6760,364
X76 a_4587_13107# VDPWR a_4505_13107# VDPWR sky130_fd_pr__pfet_01v8_hvt ad=0.135 pd=1.27 as=0.26 ps=2.52 w=1 l=0.15
**devattr s=10400,504 d=5400,254
X77 VGND VGND a_9381_11547# VGND sky130_fd_pr__nfet_01v8 ad=0.13063 pd=1.32737 as=0.08775 ps=0.92 w=0.65 l=0.15
**devattr s=3510,184 d=3510,184
X78 a_16146_5447# a_15431_5467# a_16371_5839# VGND sky130_fd_pr__nfet_01v8 ad=0.0693 pd=0.75 as=0.0441 ps=0.63 w=0.42 l=0.15
**devattr s=1764,126 d=2772,150
X79 a_14377_5467# VDPWR a_14281_5467# VDPWR sky130_fd_pr__pfet_01v8_hvt ad=0.0441 pd=0.63 as=0.0693 ps=0.75 w=0.42 l=0.15
**devattr s=2772,150 d=1764,126
X80 a_2079_5051# VGND VDPWR VDPWR sky130_fd_pr__pfet_01v8_hvt ad=0.0693 pd=0.75 as=0.08707 ps=0.84121 w=0.42 l=0.15
**devattr s=5914,269 d=2772,150
X81 a_16902_5839# VGND VGND VGND sky130_fd_pr__nfet_01v8 ad=0.0742 pd=0.91333 as=0.08441 ps=0.85768 w=0.42 l=0.15
**devattr s=2268,138 d=2268,138
X82 a_9223_1793# a_8283_2049# VGND VGND sky130_fd_pr__nfet_01v8 ad=0.169 pd=1.82 as=0.13063 ps=1.32737 w=0.65 l=0.15
**devattr s=4094,199 d=6760,364
X83 VGND VDPWR a_16539_5839# VGND sky130_fd_pr__nfet_01v8 ad=0.08441 pd=0.85768 as=0.05932 ps=0.7025 w=0.42 l=0.15
**devattr s=2268,138 d=4368,272
X84 a_4597_11543# VDPWR a_4515_11543# VDPWR sky130_fd_pr__pfet_01v8_hvt ad=0.135 pd=1.27 as=0.26 ps=2.52 w=1 l=0.15
**devattr s=10400,504 d=5400,254
X85 a_9491_15377# VGND VDPWR VDPWR sky130_fd_pr__pfet_01v8_hvt ad=0.0567 pd=0.69 as=0.08707 ps=0.84121 w=0.42 l=0.15
**devattr s=4704,280 d=2268,138
X86 a_6944_13645# a_6329_12927# a_6862_13645# VDPWR sky130_fd_pr__pfet_01v8_hvt ad=0.0441 pd=0.63 as=0.1092 ps=1.36 w=0.42 l=0.15
**devattr s=4368,272 d=1764,126
X87 a_10132_5445# VGND a_10357_5471# VDPWR sky130_fd_pr__pfet_01v8_hvt ad=0.0693 pd=0.75 as=0.0441 ps=0.63 w=0.42 l=0.15
**devattr s=1764,126 d=2772,150
X88 VGND a_13840_1767# a_13788_1793# VGND sky130_fd_pr__nfet_01v8 ad=0.13063 pd=1.32737 as=0.169 ps=1.82 w=0.65 l=0.15
**devattr s=6760,364 d=4094,199
X89 a_8700_1793# VGND VDPWR VDPWR sky130_fd_pr__pfet_01v8_hvt ad=0.0742 pd=0.91333 as=0.08707 ps=0.84121 w=0.42 l=0.15
**devattr s=2268,138 d=2268,138
X90 a_4635_13809# VGND VDPWR VDPWR sky130_fd_pr__pfet_01v8_hvt ad=0.0567 pd=0.69 as=0.08707 ps=0.84121 w=0.42 l=0.15
**devattr s=4704,280 d=2268,138
X91 a_2706_5417# VGND VGND VGND sky130_fd_pr__nfet_01v8 ad=0.0742 pd=0.91333 as=0.08441 ps=0.85768 w=0.42 l=0.15
**devattr s=2268,138 d=2268,138
X92 VDPWR VGND a_2343_5051# VDPWR sky130_fd_pr__pfet_01v8_hvt ad=0.08707 pd=0.84121 as=0.05932 ps=0.7025 w=0.42 l=0.15
**devattr s=2478,143 d=2268,138
X93 VGND a_4513_14775# a_4847_14525# VGND sky130_fd_pr__nfet_01v8 ad=0.13063 pd=1.32737 as=0.25025 ps=1.42 w=0.65 l=0.15
**devattr s=10010,284 d=8320,388
X94 a_10986_2159# VDPWR a_10235_2049# VGND sky130_fd_pr__nfet_01v8 ad=0.063 pd=0.72 as=0.0567 ps=0.69 w=0.42 l=0.15
**devattr s=2268,138 d=2520,144
X95 a_4215_2153# VDPWR a_4119_2153# VGND sky130_fd_pr__nfet_01v8 ad=0.0441 pd=0.63 as=0.0693 ps=0.75 w=0.42 l=0.15
**devattr s=2772,150 d=1764,126
X96 VGND a_11979_13399# a_12615_14007# VGND sky130_fd_pr__nfet_01v8 ad=0.08441 pd=0.85768 as=0.063 ps=0.72 w=0.42 l=0.15
**devattr s=2268,138 d=4075,198
X97 VGND VGND a_12978_2159# VGND sky130_fd_pr__nfet_01v8 ad=0.08441 pd=0.85768 as=0.063 ps=0.72 w=0.42 l=0.15
**devattr s=2520,144 d=4094,199
X98 a_9779_13785# a_9501_13813# VDPWR VDPWR sky130_fd_pr__pfet_01v8_hvt ad=0.475 pd=2.95 as=0.20731 ps=2.00287 w=1 l=0.15
**devattr s=6662,278 d=19000,590
X99 a_10888_5471# VGND VDPWR VDPWR sky130_fd_pr__pfet_01v8_hvt ad=0.0742 pd=0.91333 as=0.08707 ps=0.84121 w=0.42 l=0.15
**devattr s=2268,138 d=2268,138
X100 a_18625_4938# a_17425_5473# a_18625_5265# VGND sky130_fd_pr__nfet_01v8 ad=0.09975 pd=0.895 as=0.0693 ps=0.75 w=0.42 l=0.15
**devattr s=2772,150 d=3990,179
X101 VGND a_4503_16339# a_4837_16089# VGND sky130_fd_pr__nfet_01v8 ad=0.13063 pd=1.32737 as=0.25025 ps=1.42 w=0.65 l=0.15
**devattr s=10010,284 d=8320,388
X102 a_8337_1793# a_7221_1787# VDPWR VDPWR sky130_fd_pr__pfet_01v8_hvt ad=0.05932 pd=0.7025 as=0.08707 ps=0.84121 w=0.42 l=0.15
**devattr s=2268,138 d=2268,138
X103 VGND VGND a_7126_5409# VGND sky130_fd_pr__nfet_01v8 ad=0.08441 pd=0.85768 as=0.063 ps=0.72 w=0.42 l=0.15
**devattr s=2520,144 d=4094,199
X104 VDPWR VDPWR a_10525_5471# VDPWR sky130_fd_pr__pfet_01v8_hvt ad=0.08707 pd=0.84121 as=0.05932 ps=0.7025 w=0.42 l=0.15
**devattr s=2268,138 d=4368,272
X105 a_14825_4547# a_13709_4553# VDPWR VDPWR sky130_fd_pr__pfet_01v8_hvt ad=0.05932 pd=0.7025 as=0.08707 ps=0.84121 w=0.42 l=0.15
**devattr s=2268,138 d=2268,138
X106 a_8377_5305# a_7315_5043# a_8794_5415# VGND sky130_fd_pr__nfet_01v8 ad=0.0567 pd=0.69 as=0.0742 ps=0.91333 w=0.42 l=0.15
**devattr s=2268,138 d=2268,138
X107 VDPWR VDPWR a_9503_10581# VDPWR sky130_fd_pr__pfet_01v8_hvt ad=0.08707 pd=0.84121 as=0.0567 ps=0.69 w=0.42 l=0.15
**devattr s=2268,138 d=6662,278
X108 VDPWR a_8038_5023# a_7986_5049# VDPWR sky130_fd_pr__pfet_01v8_hvt ad=0.20731 pd=2.00287 as=0.26 ps=2.52 w=1 l=0.15
**devattr s=10400,504 d=5914,269
X109 a_11888_1767# a_11175_1793# a_12113_2159# VGND sky130_fd_pr__nfet_01v8 ad=0.0693 pd=0.75 as=0.0441 ps=0.63 w=0.42 l=0.15
**devattr s=1764,126 d=2772,150
X110 VGND sky130_fd_sc_hd__mux4_1_0.A1 a_23511_14335# VGND sky130_fd_pr__nfet_01v8 ad=0.08441 pd=0.85768 as=0.1092 ps=1.36 w=0.42 l=0.15
**devattr s=4368,272 d=2268,138
X111 VGND a_3990_1761# a_3938_1787# VGND sky130_fd_pr__nfet_01v8 ad=0.13063 pd=1.32737 as=0.169 ps=1.82 w=0.65 l=0.15
**devattr s=6760,364 d=4094,199
X112 a_9371_13111# VDPWR VGND VGND sky130_fd_pr__nfet_01v8 ad=0.08775 pd=0.92 as=0.13063 ps=1.32737 w=0.65 l=0.15
**devattr s=6760,364 d=3510,184
X113 VDPWR VDPWR a_6698_1787# VDPWR sky130_fd_pr__pfet_01v8_hvt ad=0.08707 pd=0.84121 as=0.0742 ps=0.91333 w=0.42 l=0.15
**devattr s=4368,272 d=2268,138
X114 a_6805_15235# a_4847_14525# a_6717_15235# VGND sky130_fd_pr__nfet_01v8 ad=0.0798 pd=0.8 as=0.0609 ps=0.71 w=0.42 l=0.15
**devattr s=2436,142 d=3192,160
X115 a_9705_12861# VDPWR a_9621_12861# VGND sky130_fd_pr__nfet_01v8 ad=0.25025 pd=1.42 as=0.08775 ps=0.92 w=0.65 l=0.15
**devattr s=3510,184 d=10010,284
X116 VGND VGND a_13520_4919# VGND sky130_fd_pr__nfet_01v8 ad=0.08441 pd=0.85768 as=0.063 ps=0.72 w=0.42 l=0.15
**devattr s=2520,144 d=4094,199
X117 VDPWR VGND a_10289_1793# VDPWR sky130_fd_pr__pfet_01v8_hvt ad=0.08707 pd=0.84121 as=0.05932 ps=0.7025 w=0.42 l=0.15
**devattr s=2478,143 d=2268,138
X118 a_8167_5049# VGND VDPWR VDPWR sky130_fd_pr__pfet_01v8_hvt ad=0.0693 pd=0.75 as=0.08707 ps=0.84121 w=0.42 l=0.15
**devattr s=5914,269 d=2772,150
X119 a_1920_1765# a_2187_1765# a_2145_2157# VGND sky130_fd_pr__nfet_01v8 ad=0.0693 pd=0.75 as=0.0441 ps=0.63 w=0.42 l=0.15
**devattr s=1764,126 d=2772,150
X120 a_5269_1787# a_4329_2043# VGND VGND sky130_fd_pr__nfet_01v8 ad=0.169 pd=1.82 as=0.13063 ps=1.32737 w=0.65 l=0.15
**devattr s=4094,199 d=6760,364
X121 VDPWR VDPWR a_13186_4553# VDPWR sky130_fd_pr__pfet_01v8_hvt ad=0.08707 pd=0.84121 as=0.0742 ps=0.91333 w=0.42 l=0.15
**devattr s=4368,272 d=2268,138
X122 a_16486_16197# VDPWR VDPWR VDPWR sky130_fd_pr__pfet_01v8_hvt ad=0.26 pd=2.52 as=0.20731 ps=2.00287 w=1 l=0.15
**devattr s=10400,504 d=10400,504
X123 a_23677_14701# ui_in[0] ui_in[1] VDPWR sky130_fd_pr__pfet_01v8_hvt ad=0.10855 pd=1.36 as=0.0742 ps=0.91333 w=0.42 l=0.15
**devattr s=2268,138 d=4316,272
X124 a_4905_12113# a_4627_12141# VDPWR VDPWR sky130_fd_pr__pfet_01v8_hvt ad=0.475 pd=2.95 as=0.20731 ps=2.00287 w=1 l=0.15
**devattr s=6662,278 d=19000,590
X125 a_12823_4553# a_11439_4597# VDPWR VDPWR sky130_fd_pr__pfet_01v8_hvt ad=0.05932 pd=0.7025 as=0.08707 ps=0.84121 w=0.42 l=0.15
**devattr s=2268,138 d=2268,138
X126 a_4915_10549# a_4637_10577# VGND VGND sky130_fd_pr__nfet_01v8 ad=0.182 pd=1.86 as=0.13063 ps=1.32737 w=0.65 l=0.15
**devattr s=4472,208 d=7280,372
X127 a_6087_14735# a_5809_14763# VGND VGND sky130_fd_pr__nfet_01v8 ad=0.182 pd=1.86 as=0.13063 ps=1.32737 w=0.65 l=0.15
**devattr s=4472,208 d=7280,372
X128 a_12793_14007# a_11147_11911# a_12697_14007# VDPWR sky130_fd_pr__pfet_01v8_hvt ad=0.0441 pd=0.63 as=0.0693 ps=0.75 w=0.42 l=0.15
**devattr s=2772,150 d=1764,126
X129 VGND VDPWR a_2313_2157# VGND sky130_fd_pr__nfet_01v8 ad=0.08441 pd=0.85768 as=0.05932 ps=0.7025 w=0.42 l=0.15
**devattr s=2268,138 d=4368,272
X130 VGND a_14152_5441# a_14100_5467# VGND sky130_fd_pr__nfet_01v8 ad=0.13063 pd=1.32737 as=0.169 ps=1.82 w=0.65 l=0.15
**devattr s=6760,364 d=4094,199
X131 VDPWR VGND a_17236_5473# VDPWR sky130_fd_pr__pfet_01v8_hvt ad=0.08707 pd=0.84121 as=0.063 ps=0.72 w=0.42 l=0.15
**devattr s=2520,144 d=5914,269
X132 a_7749_14003# a_7173_15235# VGND VGND sky130_fd_pr__nfet_01v8 ad=0.063 pd=0.72 as=0.08441 ps=0.85768 w=0.42 l=0.15
**devattr s=2268,138 d=2268,138
X133 VGND a_9317_5049# a_18371_4938# VGND sky130_fd_pr__nfet_01v8 ad=0.08441 pd=0.85768 as=0.1092 ps=1.36 w=0.42 l=0.15
**devattr s=4368,272 d=5796,222
X134 a_4213_5409# VGND VGND VGND sky130_fd_pr__nfet_01v8 ad=0.0693 pd=0.75 as=0.08441 ps=0.85768 w=0.42 l=0.15
**devattr s=4094,199 d=2772,150
X135 a_10121_1793# VDPWR a_10025_1793# VDPWR sky130_fd_pr__pfet_01v8_hvt ad=0.0441 pd=0.63 as=0.0693 ps=0.75 w=0.42 l=0.15
**devattr s=2772,150 d=1764,126
X136 a_4383_1787# a_3199_1791# VDPWR VDPWR sky130_fd_pr__pfet_01v8_hvt ad=0.05932 pd=0.7025 as=0.08707 ps=0.84121 w=0.42 l=0.15
**devattr s=2268,138 d=2268,138
X137 a_10289_4963# VGND VGND VGND sky130_fd_pr__nfet_01v8 ad=0.0693 pd=0.75 as=0.08441 ps=0.85768 w=0.42 l=0.15
**devattr s=4094,199 d=2772,150
X138 VDPWR VGND a_3010_1791# VDPWR sky130_fd_pr__pfet_01v8_hvt ad=0.08707 pd=0.84121 as=0.063 ps=0.72 w=0.42 l=0.15
**devattr s=2520,144 d=5914,269
X139 a_14432_4521# a_13709_4553# a_14657_4913# VGND sky130_fd_pr__nfet_01v8 ad=0.0693 pd=0.75 as=0.0441 ps=0.63 w=0.42 l=0.15
**devattr s=1764,126 d=2772,150
X140 a_12615_14007# a_12039_15239# VGND VGND sky130_fd_pr__nfet_01v8 ad=0.063 pd=0.72 as=0.08441 ps=0.85768 w=0.42 l=0.15
**devattr s=2268,138 d=2268,138
X141 a_12227_2049# a_11175_1793# a_12644_1793# VDPWR sky130_fd_pr__pfet_01v8_hvt ad=0.0567 pd=0.69 as=0.0742 ps=0.91333 w=0.42 l=0.15
**devattr s=2268,138 d=2268,138
X142 VDPWR a_7944_1767# a_7892_1793# VDPWR sky130_fd_pr__pfet_01v8_hvt ad=0.20731 pd=2.00287 as=0.26 ps=2.52 w=1 l=0.15
**devattr s=10400,504 d=5914,269
X143 a_4763_14525# VGND VGND VGND sky130_fd_pr__nfet_01v8 ad=0.08775 pd=0.92 as=0.13063 ps=1.32737 w=0.65 l=0.15
**devattr s=3510,184 d=3510,184
X144 a_16275_5839# VGND VGND VGND sky130_fd_pr__nfet_01v8 ad=0.0693 pd=0.75 as=0.08441 ps=0.85768 w=0.42 l=0.15
**devattr s=4094,199 d=2772,150
X145 a_17425_5473# a_16485_5729# VDPWR VDPWR sky130_fd_pr__pfet_01v8_hvt ad=0.26 pd=2.52 as=0.20731 ps=2.00287 w=1 l=0.15
**devattr s=5914,269 d=10400,504
X146 a_24962_14701# ui_in[1] a_24234_14385# VGND sky130_fd_pr__nfet_01v8 ad=0.15102 pd=1.285 as=0.0742 ps=0.91333 w=0.42 l=0.15
**devattr s=4368,272 d=6041,257
X147 VGND VGND a_16994_2159# VGND sky130_fd_pr__nfet_01v8 ad=0.08441 pd=0.85768 as=0.063 ps=0.72 w=0.42 l=0.15
**devattr s=2520,144 d=4094,199
X148 VDPWR a_10132_5445# a_10080_5471# VDPWR sky130_fd_pr__pfet_01v8_hvt ad=0.20731 pd=2.00287 as=0.26 ps=2.52 w=1 l=0.15
**devattr s=10400,504 d=5914,269
X149 VGND VGND a_16539_5839# VGND sky130_fd_pr__nfet_01v8 ad=0.08441 pd=0.85768 as=0.05932 ps=0.7025 w=0.42 l=0.15
**devattr s=2478,143 d=2268,138
X150 a_15188_4913# VGND VGND VGND sky130_fd_pr__nfet_01v8 ad=0.0742 pd=0.91333 as=0.08441 ps=0.85768 w=0.42 l=0.15
**devattr s=2268,138 d=2268,138
X151 VGND VDPWR a_12587_5825# VGND sky130_fd_pr__nfet_01v8 ad=0.08441 pd=0.85768 as=0.05932 ps=0.7025 w=0.42 l=0.15
**devattr s=2268,138 d=4368,272
X152 a_2259_2047# a_2187_1765# a_2676_1791# VDPWR sky130_fd_pr__pfet_01v8_hvt ad=0.0567 pd=0.69 as=0.0742 ps=0.91333 w=0.42 l=0.15
**devattr s=2268,138 d=2268,138
X153 a_4746_2153# VGND VGND VGND sky130_fd_pr__nfet_01v8 ad=0.0742 pd=0.91333 as=0.08441 ps=0.85768 w=0.42 l=0.15
**devattr s=2268,138 d=2268,138
X154 VGND VGND a_10553_4963# VGND sky130_fd_pr__nfet_01v8 ad=0.08441 pd=0.85768 as=0.05932 ps=0.7025 w=0.42 l=0.15
**devattr s=2478,143 d=2268,138
X155 a_9503_10581# VGND VDPWR VDPWR sky130_fd_pr__pfet_01v8_hvt ad=0.0567 pd=0.69 as=0.08707 ps=0.84121 w=0.42 l=0.15
**devattr s=4704,280 d=2268,138
X156 a_9781_10553# a_9503_10581# VDPWR VDPWR sky130_fd_pr__pfet_01v8_hvt ad=0.475 pd=2.95 as=0.20731 ps=2.00287 w=1 l=0.15
**devattr s=6662,278 d=19000,590
X157 a_8337_2159# a_8283_2049# a_7944_1767# VGND sky130_fd_pr__nfet_01v8 ad=0.05932 pd=0.7025 as=0.0693 ps=0.75 w=0.42 l=0.15
**devattr s=2772,150 d=2478,143
X158 a_1950_5025# a_2217_5025# a_2175_5417# VGND sky130_fd_pr__nfet_01v8 ad=0.0693 pd=0.75 as=0.0441 ps=0.63 w=0.42 l=0.15
**devattr s=1764,126 d=2772,150
X159 a_14179_2049# a_13167_1793# a_14596_2159# VGND sky130_fd_pr__nfet_01v8 ad=0.0567 pd=0.69 as=0.0742 ps=0.91333 w=0.42 l=0.15
**devattr s=2268,138 d=2268,138
X160 a_10261_5471# VGND VDPWR VDPWR sky130_fd_pr__pfet_01v8_hvt ad=0.0693 pd=0.75 as=0.08707 ps=0.84121 w=0.42 l=0.15
**devattr s=5914,269 d=2772,150
X161 a_10652_2159# VGND VGND VGND sky130_fd_pr__nfet_01v8 ad=0.0742 pd=0.91333 as=0.08441 ps=0.85768 w=0.42 l=0.15
**devattr s=2268,138 d=2268,138
X162 a_15904_1767# a_15119_1793# a_16129_2159# VGND sky130_fd_pr__nfet_01v8 ad=0.0693 pd=0.75 as=0.0441 ps=0.63 w=0.42 l=0.15
**devattr s=1764,126 d=2772,150
X163 a_12865_14007# a_12039_15239# a_12793_14007# VDPWR sky130_fd_pr__pfet_01v8_hvt ad=0.0693 pd=0.75 as=0.0441 ps=0.63 w=0.42 l=0.15
**devattr s=1764,126 d=2772,150
X164 VDPWR VGND a_9461_14779# VDPWR sky130_fd_pr__pfet_01v8_hvt ad=0.20731 pd=2.00287 as=0.135 ps=1.27 w=1 l=0.15
**devattr s=5400,254 d=5400,254
X165 a_7749_14003# a_4915_10549# VGND VGND sky130_fd_pr__nfet_01v8 ad=0.063 pd=0.72 as=0.08441 ps=0.85768 w=0.42 l=0.15
**devattr s=4368,272 d=2772,150
X166 VDPWR VGND a_10525_5471# VDPWR sky130_fd_pr__pfet_01v8_hvt ad=0.08707 pd=0.84121 as=0.05932 ps=0.7025 w=0.42 l=0.15
**devattr s=2478,143 d=2268,138
X167 VGND VDPWR a_14233_2159# VGND sky130_fd_pr__nfet_01v8 ad=0.08441 pd=0.85768 as=0.05932 ps=0.7025 w=0.42 l=0.15
**devattr s=2268,138 d=4368,272
X168 VDPWR a_9317_5049# a_18839_4938# VDPWR sky130_fd_pr__pfet_01v8_hvt ad=0.08707 pd=0.84121 as=0.07665 ps=0.785 w=0.42 l=0.15
**devattr s=3066,157 d=6334,279
X169 a_3040_5051# VDPWR a_2289_5307# VDPWR sky130_fd_pr__pfet_01v8_hvt ad=0.063 pd=0.72 as=0.0567 ps=0.69 w=0.42 l=0.15
**devattr s=2268,138 d=2520,144
X170 a_5895_14763# VGND a_5809_14763# VGND sky130_fd_pr__nfet_01v8 ad=0.0567 pd=0.69 as=0.1176 ps=1.4 w=0.42 l=0.15
**devattr s=4704,280 d=2268,138
X171 a_8431_5415# a_7315_5043# VGND VGND sky130_fd_pr__nfet_01v8 ad=0.05932 pd=0.7025 as=0.08441 ps=0.85768 w=0.42 l=0.15
**devattr s=2268,138 d=2268,138
X172 VGND VDPWR a_4711_15373# VGND sky130_fd_pr__nfet_01v8 ad=0.08441 pd=0.85768 as=0.0567 ps=0.69 w=0.42 l=0.15
**devattr s=2268,138 d=4472,208
X173 VGND a_6281_11907# a_7749_14003# VGND sky130_fd_pr__nfet_01v8 ad=0.08441 pd=0.85768 as=0.063 ps=0.72 w=0.42 l=0.15
**devattr s=2772,150 d=2268,138
X174 a_10499_4853# VDPWR a_10916_4597# VDPWR sky130_fd_pr__pfet_01v8_hvt ad=0.0567 pd=0.69 as=0.0742 ps=0.91333 w=0.42 l=0.15
**devattr s=2268,138 d=2268,138
X175 a_6335_1787# a_5269_1787# VDPWR VDPWR sky130_fd_pr__pfet_01v8_hvt ad=0.05932 pd=0.7025 as=0.08707 ps=0.84121 w=0.42 l=0.15
**devattr s=2268,138 d=2268,138
X176 VDPWR a_9896_1767# a_9844_1793# VDPWR sky130_fd_pr__pfet_01v8_hvt ad=0.20731 pd=2.00287 as=0.26 ps=2.52 w=1 l=0.15
**devattr s=10400,504 d=5914,269
X177 VGND VDPWR a_6792_5409# VGND sky130_fd_pr__nfet_01v8 ad=0.08441 pd=0.85768 as=0.0742 ps=0.91333 w=0.42 l=0.15
**devattr s=4368,272 d=2268,138
X178 VGND VDPWR a_2676_2157# VGND sky130_fd_pr__nfet_01v8 ad=0.08441 pd=0.85768 as=0.0742 ps=0.91333 w=0.42 l=0.15
**devattr s=4368,272 d=2268,138
X179 VGND VGND a_4513_14775# VGND sky130_fd_pr__nfet_01v8 ad=0.13063 pd=1.32737 as=0.08775 ps=0.92 w=0.65 l=0.15
**devattr s=3510,184 d=3510,184
X180 a_10717_13773# a_9703_16093# VDPWR VDPWR sky130_fd_pr__pfet_01v8_hvt ad=0.06615 pd=0.735 as=0.08707 ps=0.84121 w=0.42 l=0.15
**devattr s=3108,158 d=2352,140
X181 a_11810_13649# a_11195_12931# a_11728_13649# VDPWR sky130_fd_pr__pfet_01v8_hvt ad=0.0441 pd=0.63 as=0.1092 ps=1.36 w=0.42 l=0.15
**devattr s=4368,272 d=1764,126
X182 VGND VGND a_12281_2159# VGND sky130_fd_pr__nfet_01v8 ad=0.08441 pd=0.85768 as=0.05932 ps=0.7025 w=0.42 l=0.15
**devattr s=2478,143 d=2268,138
X183 a_16847_4529# a_16793_4785# a_16454_4503# VDPWR sky130_fd_pr__pfet_01v8_hvt ad=0.05932 pd=0.7025 as=0.0693 ps=0.75 w=0.42 l=0.15
**devattr s=2772,150 d=2478,143
X184 a_16243_2049# a_15119_1793# a_16660_1793# VDPWR sky130_fd_pr__pfet_01v8_hvt ad=0.0567 pd=0.69 as=0.0742 ps=0.91333 w=0.42 l=0.15
**devattr s=2268,138 d=2268,138
X185 a_10025_1793# VGND VDPWR VDPWR sky130_fd_pr__pfet_01v8_hvt ad=0.0693 pd=0.75 as=0.08707 ps=0.84121 w=0.42 l=0.15
**devattr s=5914,269 d=2772,150
X186 VGND VGND a_2313_2157# VGND sky130_fd_pr__nfet_01v8 ad=0.08441 pd=0.85768 as=0.05932 ps=0.7025 w=0.42 l=0.15
**devattr s=2478,143 d=2268,138
X187 a_8193_13753# a_7749_14003# VDPWR VDPWR sky130_fd_pr__pfet_01v8_hvt ad=0.27 pd=2.54 as=0.20731 ps=2.00287 w=1 l=0.15
**devattr s=5930,268 d=10800,508
X188 a_14152_5441# a_14419_5441# a_14377_5467# VDPWR sky130_fd_pr__pfet_01v8_hvt ad=0.0693 pd=0.75 as=0.0441 ps=0.63 w=0.42 l=0.15
**devattr s=1764,126 d=2772,150
X189 ua[0] a_24962_14701# VDPWR VDPWR sky130_fd_pr__pfet_01v8_hvt ad=0.26 pd=2.52 as=0.20731 ps=2.00287 w=1 l=0.15
**devattr s=10400,504 d=10400,504
X190 a_4755_13107# VGND VDPWR VDPWR sky130_fd_pr__pfet_01v8_hvt ad=0.17667 pd=1.68667 as=0.20731 ps=2.00287 w=1 l=0.15
**devattr s=5400,254 d=5400,254
X191 a_12769_4809# a_11439_4597# a_13186_4919# VGND sky130_fd_pr__nfet_01v8 ad=0.0567 pd=0.69 as=0.0742 ps=0.91333 w=0.42 l=0.15
**devattr s=2268,138 d=2268,138