* NGSPICE file created from tt_um_ohmy90_flat_adders.ext - technology: sky130A

.subckt tt_um_ohmy90_flat_adders clk ena rst_n ua[0] ua[1] VPWR Y ua[4] ua[5] ua[6]
+ ua[7] ui_in[0] ui_in[1] ui_in[2] ui_in[3] ui_in[4] ui_in[5] ui_in[6] ui_in[7] uio_in[0]
+ uio_in[1] uio_in[2] uio_in[3] uio_in[4] uio_in[5] uio_in[6] uio_in[7] uio_oe[0]
+ uio_oe[1] uio_oe[2] uio_oe[3] uio_oe[4] uio_oe[5] uio_oe[6] uio_oe[7] uio_out[0]
+ uio_out[1] uio_out[2] uio_out[3] uio_out[4] uio_out[5] uio_out[6] uio_out[7] uo_out[0]
+ uo_out[1] uo_out[2] uo_out[3] uo_out[4] uo_out[5] uo_out[6] uo_out[7] VGND
X0 a_4183_1787# a_4129_2043# a_3790_1761# w_3638_1702# sky130_fd_pr__pfet_01v8_hvt ad=0.05932 pd=0.7025 as=0.0693 ps=0.75 w=0.42 l=0.15
**devattr s=2772,150 d=2478,143
X1 a_15255_4841# a_14325_4589# a_15672_4585# w_14764_4500# sky130_fd_pr__pfet_01v8_hvt ad=0.0567 pd=0.69 as=0.0742 ps=0.91333 w=0.42 l=0.15
**devattr s=2268,138 d=2268,138
X2 a_24234_14385# ui_in[1] a_24152_14385# VNB sky130_fd_pr__nfet_01v8 ad=0.0742 pd=0.91333 as=0.10855 ps=1.36 w=0.42 l=0.15
**devattr s=4368,272 d=2268,138
X3 VGND a_14888_5433# a_14836_5459# VNB sky130_fd_pr__nfet_01v8 ad=0.12778 pd=1.31426 as=0.169 ps=1.82 w=0.65 l=0.15
**devattr s=6760,364 d=4094,199
X4 a_15113_5825# VPWR a_15017_5825# VNB sky130_fd_pr__nfet_01v8 ad=0.0441 pd=0.63 as=0.0693 ps=0.75 w=0.42 l=0.15
**devattr s=2772,150 d=1764,126
X5 a_13732_1769# VGND VPWR w_12824_1684# sky130_fd_pr__pfet_01v8_hvt ad=0.0742 pd=0.91333 as=0.0862 ps=0.83264 w=0.42 l=0.15
**devattr s=2268,138 d=2268,138
X6 a_4711_15373# VGND a_4625_15373# VNB sky130_fd_pr__nfet_01v8 ad=0.0567 pd=0.69 as=0.1176 ps=1.4 w=0.42 l=0.15
**devattr s=4704,280 d=2268,138
X7 a_11202_5441# a_10611_5471# a_11427_5467# w_11050_5382# sky130_fd_pr__pfet_01v8_hvt ad=0.0693 pd=0.75 as=0.0441 ps=0.63 w=0.42 l=0.15
**devattr s=1764,126 d=2772,150
X8 VPWR VGND a_2313_1791# w_1768_1706# sky130_fd_pr__pfet_01v8_hvt ad=0.0862 pd=0.83264 as=0.05932 ps=0.7025 w=0.42 l=0.15
**devattr s=2478,143 d=2268,138
X9 VGND a_5636_5017# a_5584_5043# VNB sky130_fd_pr__nfet_01v8 ad=0.12778 pd=1.31426 as=0.169 ps=1.82 w=0.65 l=0.15
**devattr s=6760,364 d=4094,199
X10 a_9865_15329# a_9587_15357# VPWR w_9490_15543# sky130_fd_pr__pfet_01v8_hvt ad=0.475 pd=2.95 as=0.20523 ps=1.98249 w=1 l=0.15
**devattr s=6662,278 d=19000,590
X11 a_1950_5025# Y a_2175_5051# w_1798_4966# sky130_fd_pr__pfet_01v8_hvt ad=0.0693 pd=0.75 as=0.0441 ps=0.63 w=0.42 l=0.15
**devattr s=1764,126 d=2772,150
X12 VPWR VPWR a_15644_5459# w_14736_5374# sky130_fd_pr__pfet_01v8_hvt ad=0.0862 pd=0.83264 as=0.0742 ps=0.91333 w=0.42 l=0.15
**devattr s=4368,272 d=2268,138
X13 a_5999_1783# a_5873_1757# VPWR w_5454_1698# sky130_fd_pr__pfet_01v8_hvt ad=0.05932 pd=0.7025 as=0.0862 ps=0.83264 w=0.42 l=0.15
**devattr s=2268,138 d=2268,138
X14 VPWR VPWR a_9587_15357# w_9490_15543# sky130_fd_pr__pfet_01v8_hvt ad=0.0862 pd=0.83264 as=0.0567 ps=0.69 w=0.42 l=0.15
**devattr s=2268,138 d=6662,278
X15 a_4513_14775# VPWR VGND VNB sky130_fd_pr__nfet_01v8 ad=0.08775 pd=0.92 as=0.12778 ps=1.31426 w=0.65 l=0.15
**devattr s=6760,364 d=3510,184
X16 a_6129_12927# a_4913_13781# a_6057_12927# VNB sky130_fd_pr__nfet_01v8 ad=0.0441 pd=0.63 as=0.0441 ps=0.63 w=0.42 l=0.15
**devattr s=1764,126 d=1764,126
X17 VPWR VPWR a_6392_5043# w_5484_4958# sky130_fd_pr__pfet_01v8_hvt ad=0.0862 pd=0.83264 as=0.0742 ps=0.91333 w=0.42 l=0.15
**devattr s=4368,272 d=2268,138
X18 a_11623_4959# a_11569_4849# a_11230_4567# VNB sky130_fd_pr__nfet_01v8 ad=0.05932 pd=0.7025 as=0.0693 ps=0.75 w=0.42 l=0.15
**devattr s=2772,150 d=2478,143
X19 VPWR VPWR a_11595_5467# w_11050_5382# sky130_fd_pr__pfet_01v8_hvt ad=0.0862 pd=0.83264 as=0.05932 ps=0.7025 w=0.42 l=0.15
**devattr s=2268,138 d=4368,272
X20 A a_17125_4938# VPWR sky130_fd_sc_hd__mux2_1_0.VPB sky130_fd_pr__pfet_01v8_hvt ad=0.26 pd=2.52 as=0.20523 ps=1.98249 w=1 l=0.15
**devattr s=6334,279 d=10400,504
X21 a_13802_4955# VGND VGND VNB sky130_fd_pr__nfet_01v8 ad=0.0742 pd=0.91333 as=0.08256 ps=0.84921 w=0.42 l=0.15
**devattr s=2268,138 d=2268,138
X22 a_7113_13395# a_6862_13645# VGND VNB sky130_fd_pr__nfet_01v8 ad=0.169 pd=1.82 as=0.12778 ps=1.31426 w=0.65 l=0.15
**devattr s=4010,197 d=6760,364
X23 VPWR VGND a_15239_1765# w_14694_1680# sky130_fd_pr__pfet_01v8_hvt ad=0.0862 pd=0.83264 as=0.05932 ps=0.7025 w=0.42 l=0.15
**devattr s=2478,143 d=2268,138
X24 a_3820_5021# a_3229_5051# a_4045_5413# VNB sky130_fd_pr__nfet_01v8 ad=0.0693 pd=0.75 as=0.0441 ps=0.63 w=0.42 l=0.15
**devattr s=1764,126 d=2772,150
X25 VPWR VGND a_4587_13107# w_4432_13071# sky130_fd_pr__pfet_01v8_hvt ad=0.20523 pd=1.98249 as=0.135 ps=1.27 w=1 l=0.15
**devattr s=5400,254 d=5400,254
X26 a_13439_4955# a_13313_4563# VGND VNB sky130_fd_pr__nfet_01v8 ad=0.05932 pd=0.7025 as=0.08256 ps=0.84921 w=0.42 l=0.15
**devattr s=2268,138 d=2268,138
X27 a_15045_4951# a_14946_4905# a_14946_4905# VNB sky130_fd_pr__nfet_01v8 ad=0.0693 pd=0.75 as=0.07384 ps=0.80236 w=0.42 l=0.15
**devattr s=4094,199 d=2772,150
X28 a_2175_5417# VPWR a_2079_5417# VNB sky130_fd_pr__nfet_01v8 ad=0.0441 pd=0.63 as=0.0693 ps=0.75 w=0.42 l=0.15
**devattr s=2772,150 d=1764,126
X29 a_6089_11935# a_4849_11293# a_6003_11935# VNB sky130_fd_pr__nfet_01v8 ad=0.0567 pd=0.69 as=0.1176 ps=1.4 w=0.42 l=0.15
**devattr s=4704,280 d=2268,138
X30 VPWR VGND a_4597_11543# w_4442_11507# sky130_fd_pr__pfet_01v8_hvt ad=0.20523 pd=1.98249 as=0.135 ps=1.27 w=1 l=0.15
**devattr s=5400,254 d=5400,254
X31 VPWR a_9867_12097# a_10965_11919# w_10868_12105# sky130_fd_pr__pfet_01v8_hvt ad=0.0862 pd=0.83264 as=0.0567 ps=0.69 w=0.42 l=0.15
**devattr s=2268,138 d=6662,278
X32 a_14946_4905# a_14946_4905# a_15309_4951# VNB sky130_fd_pr__nfet_01v8 ad=0.07384 pd=0.80236 as=0.05932 ps=0.7025 w=0.42 l=0.15
**devattr s=2478,143 d=2268,138
X33 a_17346_5265# sky130_fd_sc_hd__mux2_1_0.A1 a_17125_4938# VNB sky130_fd_pr__nfet_01v8 ad=0.0693 pd=0.75 as=0.09975 ps=0.895 w=0.42 l=0.15
**devattr s=3990,179 d=2772,150
X34 VGND VGND a_9467_13091# VNB sky130_fd_pr__nfet_01v8 ad=0.12778 pd=1.31426 as=0.08775 ps=0.92 w=0.65 l=0.15
**devattr s=3510,184 d=3510,184
X35 a_15936_2131# VPWR a_15185_2021# VNB sky130_fd_pr__nfet_01v8 ad=0.063 pd=0.72 as=0.0567 ps=0.69 w=0.42 l=0.15
**devattr s=2268,138 d=2520,144
X36 VGND VPWR a_4213_5413# VNB sky130_fd_pr__nfet_01v8 ad=0.08256 pd=0.84921 as=0.05932 ps=0.7025 w=0.42 l=0.15
**devattr s=2268,138 d=4368,272
X37 a_9671_5727# VGND a_10088_5471# w_9180_5386# sky130_fd_pr__pfet_01v8_hvt ad=0.0567 pd=0.69 as=0.0742 ps=0.91333 w=0.42 l=0.15
**devattr s=2268,138 d=2268,138
X38 a_11553_1773# a_11499_2029# a_11160_1747# w_11008_1688# sky130_fd_pr__pfet_01v8_hvt ad=0.05932 pd=0.7025 as=0.0693 ps=0.75 w=0.42 l=0.15
**devattr s=2772,150 d=2478,143
X39 a_13774_5463# VGND VPWR w_12866_5378# sky130_fd_pr__pfet_01v8_hvt ad=0.0742 pd=0.91333 as=0.0862 ps=0.83264 w=0.42 l=0.15
**devattr s=2268,138 d=2268,138
X40 a_3949_5047# VGND VPWR w_3668_4962# sky130_fd_pr__pfet_01v8_hvt ad=0.0693 pd=0.75 as=0.0862 ps=0.83264 w=0.42 l=0.15
**devattr s=5914,269 d=2772,150
X41 VGND VGND a_8566_2145# VNB sky130_fd_pr__nfet_01v8 ad=0.08256 pd=0.84921 as=0.063 ps=0.72 w=0.42 l=0.15
**devattr s=2520,144 d=4094,199
X42 a_9715_16323# VGND VPWR w_9392_16287# sky130_fd_pr__pfet_01v8_hvt ad=0.17667 pd=1.68667 as=0.20523 ps=1.98249 w=1 l=0.15
**devattr s=5400,254 d=5400,254
X43 a_9725_14509# VGND VGND VNB sky130_fd_pr__nfet_01v8 ad=0.08775 pd=0.92 as=0.12778 ps=1.31426 w=0.65 l=0.15
**devattr s=3510,184 d=3510,184
X44 VGND a_1920_1765# a_1868_1791# VNB sky130_fd_pr__nfet_01v8 ad=0.12778 pd=1.31426 as=0.169 ps=1.82 w=0.65 l=0.15
**devattr s=6760,364 d=4094,199
X45 VPWR a_12075_13379# a_12881_13987# w_12566_13951# sky130_fd_pr__pfet_01v8_hvt ad=0.0862 pd=0.83264 as=0.0693 ps=0.75 w=0.42 l=0.15
**devattr s=2772,150 d=5930,268
X46 a_10422_5837# VPWR a_9671_5727# VNB sky130_fd_pr__nfet_01v8 ad=0.063 pd=0.72 as=0.0567 ps=0.69 w=0.42 l=0.15
**devattr s=2268,138 d=2520,144
X47 VPWR sky130_fd_sc_hd__inv_1_2.A sky130_fd_sc_hd__inv_1_2.Y sky130_fd_sc_hd__inv_1_2.VPB sky130_fd_pr__pfet_01v8_hvt ad=0.20523 pd=1.98249 as=0.26 ps=2.52 w=1 l=0.15
**devattr s=10400,504 d=10400,504
X48 VPWR VPWR a_4753_16339# w_4430_16303# sky130_fd_pr__pfet_01v8_hvt ad=0.20523 pd=1.98249 as=0.17667 ps=1.68667 w=1 l=0.15
**devattr s=5400,254 d=10400,504
X49 a_9332_5445# VGND a_9557_5837# VNB sky130_fd_pr__nfet_01v8 ad=0.0693 pd=0.75 as=0.0441 ps=0.63 w=0.42 l=0.15
**devattr s=1764,126 d=2772,150
X50 VPWR a_5606_1757# a_5554_1783# w_5454_1698# sky130_fd_pr__pfet_01v8_hvt ad=0.20523 pd=1.98249 as=0.26 ps=2.52 w=1 l=0.15
**devattr s=10400,504 d=5914,269
X51 VPWR a_12976_1743# a_12924_1769# w_12824_1684# sky130_fd_pr__pfet_01v8_hvt ad=0.20523 pd=1.98249 as=0.26 ps=2.52 w=1 l=0.15
**devattr s=10400,504 d=5914,269
X52 a_4880_1787# VPWR a_4129_2043# w_3638_1702# sky130_fd_pr__pfet_01v8_hvt ad=0.063 pd=0.72 as=0.0567 ps=0.69 w=0.42 l=0.15
**devattr s=2268,138 d=2520,144
X53 a_5945_2039# a_5873_1757# a_6362_2149# VNB sky130_fd_pr__nfet_01v8 ad=0.0567 pd=0.69 as=0.0742 ps=0.91333 w=0.42 l=0.15
**devattr s=2268,138 d=2268,138
X54 a_12509_4593# a_11569_4849# VPWR w_11078_4508# sky130_fd_pr__pfet_01v8_hvt ad=0.26 pd=2.52 as=0.20523 ps=1.98249 w=1 l=0.15
**devattr s=5914,269 d=10400,504
X55 a_11359_4959# VGND VGND VNB sky130_fd_pr__nfet_01v8 ad=0.0693 pd=0.75 as=0.08256 ps=0.84921 w=0.42 l=0.15
**devattr s=4094,199 d=2772,150
X56 VGND VPWR a_4546_2153# VNB sky130_fd_pr__nfet_01v8 ad=0.08256 pd=0.84921 as=0.0742 ps=0.91333 w=0.42 l=0.15
**devattr s=4368,272 d=2268,138
X57 a_4903_15345# a_4625_15373# VGND VNB sky130_fd_pr__nfet_01v8 ad=0.182 pd=1.86 as=0.12778 ps=1.31426 w=0.65 l=0.15
**devattr s=4472,208 d=7280,372
X58 a_11541_5723# a_10611_5471# a_11958_5833# VNB sky130_fd_pr__nfet_01v8 ad=0.0567 pd=0.69 as=0.0742 ps=0.91333 w=0.42 l=0.15
**devattr s=2268,138 d=2268,138
X59 a_11230_4567# a_10639_4597# a_11455_4593# w_11078_4508# sky130_fd_pr__pfet_01v8_hvt ad=0.0693 pd=0.75 as=0.0441 ps=0.63 w=0.42 l=0.15
**devattr s=1764,126 d=2772,150
X60 a_15644_5825# VGND VGND VNB sky130_fd_pr__nfet_01v8 ad=0.0742 pd=0.91333 as=0.08256 ps=0.84921 w=0.42 l=0.15
**devattr s=2268,138 d=2268,138
X61 a_7476_1753# a_6885_1783# a_7701_2145# VNB sky130_fd_pr__nfet_01v8 ad=0.0693 pd=0.75 as=0.0441 ps=0.63 w=0.42 l=0.15
**devattr s=1764,126 d=2772,150
X62 VPWR VPWR a_4763_14775# w_4440_14739# sky130_fd_pr__pfet_01v8_hvt ad=0.20523 pd=1.98249 as=0.17667 ps=1.68667 w=1 l=0.15
**devattr s=5400,254 d=10400,504
X63 a_11291_12911# a_10937_12911# VPWR w_10872_13125# sky130_fd_pr__pfet_01v8_hvt ad=0.26 pd=2.52 as=0.20523 ps=1.98249 w=1 l=0.15
**devattr s=5689,267 d=10400,504
X64 a_8232_2145# VGND VGND VNB sky130_fd_pr__nfet_01v8 ad=0.0742 pd=0.91333 as=0.08256 ps=0.84921 w=0.42 l=0.15
**devattr s=2268,138 d=2268,138
X65 a_7869_1779# a_7815_2035# a_7476_1753# w_7324_1694# sky130_fd_pr__pfet_01v8_hvt ad=0.05932 pd=0.7025 as=0.0693 ps=0.75 w=0.42 l=0.15
**devattr s=2772,150 d=2478,143
X66 a_5831_2149# VPWR a_5735_2149# VNB sky130_fd_pr__nfet_01v8 ad=0.0441 pd=0.63 as=0.0693 ps=0.75 w=0.42 l=0.15
**devattr s=2772,150 d=1764,126
X67 a_4913_13781# a_4635_13809# VGND VNB sky130_fd_pr__nfet_01v8 ad=0.182 pd=1.86 as=0.12778 ps=1.31426 w=0.65 l=0.15
**devattr s=4472,208 d=7280,372
X68 a_10813_13753# a_9799_16073# VPWR w_10748_13967# sky130_fd_pr__pfet_01v8_hvt ad=0.06615 pd=0.735 as=0.0862 ps=0.83264 w=0.42 l=0.15
**devattr s=3108,158 d=2352,140
X69 a_5735_1783# VGND VPWR w_5454_1698# sky130_fd_pr__pfet_01v8_hvt ad=0.0693 pd=0.75 as=0.0862 ps=0.83264 w=0.42 l=0.15
**devattr s=5914,269 d=2772,150
X70 VGND VPWR a_9725_5837# VNB sky130_fd_pr__nfet_01v8 ad=0.08256 pd=0.84921 as=0.05932 ps=0.7025 w=0.42 l=0.15
**devattr s=2268,138 d=4368,272
X71 VPWR a_11202_5441# a_11150_5467# w_11050_5382# sky130_fd_pr__pfet_01v8_hvt ad=0.20523 pd=1.98249 as=0.26 ps=2.52 w=1 l=0.15
**devattr s=10400,504 d=5914,269
X72 a_11499_2029# a_10569_1777# a_11916_2139# VNB sky130_fd_pr__nfet_01v8 ad=0.0567 pd=0.69 as=0.0742 ps=0.91333 w=0.42 l=0.15
**devattr s=2268,138 d=2268,138
X73 a_11986_4593# VGND VPWR w_11078_4508# sky130_fd_pr__pfet_01v8_hvt ad=0.0742 pd=0.91333 as=0.0862 ps=0.83264 w=0.42 l=0.15
**devattr s=2268,138 d=2268,138
X74 VPWR VPWR a_9727_11527# w_9404_11491# sky130_fd_pr__pfet_01v8_hvt ad=0.20523 pd=1.98249 as=0.17667 ps=1.68667 w=1 l=0.15
**devattr s=5400,254 d=10400,504
X75 a_9753_4597# VPWR VPWR w_9208_4512# sky130_fd_pr__pfet_01v8_hvt ad=0.05932 pd=0.7025 as=0.0862 ps=0.83264 w=0.42 l=0.15
**devattr s=2268,138 d=2268,138
X76 a_4723_10577# VGND a_4637_10577# VNB sky130_fd_pr__nfet_01v8 ad=0.0567 pd=0.69 as=0.1176 ps=1.4 w=0.42 l=0.15
**devattr s=4704,280 d=2268,138
X77 VPWR VPWR a_11623_4593# w_11078_4508# sky130_fd_pr__pfet_01v8_hvt ad=0.0862 pd=0.83264 as=0.05932 ps=0.7025 w=0.42 l=0.15
**devattr s=2268,138 d=4368,272
X78 a_4587_13107# VPWR a_4505_13107# w_4432_13071# sky130_fd_pr__pfet_01v8_hvt ad=0.135 pd=1.27 as=0.26 ps=2.52 w=1 l=0.15
**devattr s=10400,504 d=5400,254
X79 a_2079_5051# VGND VPWR w_1798_4966# sky130_fd_pr__pfet_01v8_hvt ad=0.0693 pd=0.75 as=0.0862 ps=0.83264 w=0.42 l=0.15
**devattr s=5914,269 d=2772,150
X80 VGND a_9360_4571# a_9308_4597# VNB sky130_fd_pr__nfet_01v8 ad=0.12778 pd=1.31426 as=0.169 ps=1.82 w=0.65 l=0.15
**devattr s=6760,364 d=4094,199
X81 VPWR VPWR a_9599_10561# w_9502_10747# sky130_fd_pr__pfet_01v8_hvt ad=0.0862 pd=0.83264 as=0.0567 ps=0.69 w=0.42 l=0.15
**devattr s=2268,138 d=6662,278
X82 a_11331_5467# VGND VPWR w_11050_5382# sky130_fd_pr__pfet_01v8_hvt ad=0.0693 pd=0.75 as=0.0862 ps=0.83264 w=0.42 l=0.15
**devattr s=5914,269 d=2772,150
X83 a_4597_11543# VPWR a_4515_11543# w_4442_11507# sky130_fd_pr__pfet_01v8_hvt ad=0.135 pd=1.27 as=0.26 ps=2.52 w=1 l=0.15
**devattr s=10400,504 d=5400,254
X84 a_6944_13645# a_6329_12927# a_6862_13645# w_6756_13609# sky130_fd_pr__pfet_01v8_hvt ad=0.0441 pd=0.63 as=0.1092 ps=1.36 w=0.42 l=0.15
**devattr s=4368,272 d=1764,126
X85 a_7669_14003# a_7173_15235# VGND VNB sky130_fd_pr__nfet_01v8 ad=0.063 pd=0.72 as=0.08256 ps=0.84921 w=0.42 l=0.15
**devattr s=2268,138 d=2268,138
X86 a_9467_13091# VPWR VGND VNB sky130_fd_pr__nfet_01v8 ad=0.08775 pd=0.92 as=0.12778 ps=1.31426 w=0.65 l=0.15
**devattr s=6760,364 d=3510,184
X87 sky130_fd_sc_hd__mux2_1_0.A1 a_15255_4841# a_14946_4905# VNB sky130_fd_pr__nfet_01v8 ad=0.169 pd=1.82 as=0.11427 ps=1.24175 w=0.65 l=0.15
**devattr s=4094,199 d=6760,364
X88 VPWR VGND a_11595_5467# w_11050_5382# sky130_fd_pr__pfet_01v8_hvt ad=0.0862 pd=0.83264 as=0.05932 ps=0.7025 w=0.42 l=0.15
**devattr s=2478,143 d=2268,138
X89 a_4635_13809# VGND VPWR w_4538_13995# sky130_fd_pr__pfet_01v8_hvt ad=0.0567 pd=0.69 as=0.0862 ps=0.83264 w=0.42 l=0.15
**devattr s=4704,280 d=2268,138
X90 a_2706_5417# VGND VGND VNB sky130_fd_pr__nfet_01v8 ad=0.0742 pd=0.91333 as=0.08256 ps=0.84921 w=0.42 l=0.15
**devattr s=2268,138 d=2268,138
X91 VPWR VGND a_2343_5051# w_1798_4966# sky130_fd_pr__pfet_01v8_hvt ad=0.0862 pd=0.83264 as=0.05932 ps=0.7025 w=0.42 l=0.15
**devattr s=2478,143 d=2268,138
X92 a_15281_5459# a_14297_5463# VPWR w_14736_5374# sky130_fd_pr__pfet_01v8_hvt ad=0.05932 pd=0.7025 as=0.0862 ps=0.83264 w=0.42 l=0.15
**devattr s=2268,138 d=2268,138
X93 VGND a_4513_14775# a_4847_14525# VNB sky130_fd_pr__nfet_01v8 ad=0.12778 pd=1.31426 as=0.25025 ps=1.42 w=0.65 l=0.15
**devattr s=10010,284 d=8320,388
X94 a_5975_5299# a_5903_5017# a_6392_5409# VNB sky130_fd_pr__nfet_01v8 ad=0.0567 pd=0.69 as=0.0742 ps=0.91333 w=0.42 l=0.15
**devattr s=2268,138 d=2268,138
X95 VGND a_4503_16339# a_4837_16089# VNB sky130_fd_pr__nfet_01v8 ad=0.12778 pd=1.31426 as=0.25025 ps=1.42 w=0.65 l=0.15
**devattr s=10010,284 d=8320,388
X96 VGND a_9475_14759# a_9809_14509# VNB sky130_fd_pr__nfet_01v8 ad=0.12778 pd=1.31426 as=0.25025 ps=1.42 w=0.65 l=0.15
**devattr s=10010,284 d=8320,388
X97 a_13315_2025# a_13243_1743# a_13732_2135# VNB sky130_fd_pr__nfet_01v8 ad=0.0567 pd=0.69 as=0.0742 ps=0.91333 w=0.42 l=0.15
**devattr s=2268,138 d=2268,138
X98 VGND VPWR a_4576_5413# VNB sky130_fd_pr__nfet_01v8 ad=0.08256 pd=0.84921 as=0.0742 ps=0.91333 w=0.42 l=0.15
**devattr s=4368,272 d=2268,138
X99 VGND VGND a_10422_5837# VNB sky130_fd_pr__nfet_01v8 ad=0.08256 pd=0.84921 as=0.063 ps=0.72 w=0.42 l=0.15
**devattr s=2520,144 d=4094,199
X100 a_6029_5043# a_5975_5299# a_5636_5017# w_5484_4958# sky130_fd_pr__pfet_01v8_hvt ad=0.05932 pd=0.7025 as=0.0693 ps=0.75 w=0.42 l=0.15
**devattr s=2772,150 d=2478,143
X101 a_12135_15219# a_11597_15219# VPWR w_11532_15433# sky130_fd_pr__pfet_01v8_hvt ad=0.26 pd=2.52 as=0.20523 ps=1.98249 w=1 l=0.15
**devattr s=12498,336 d=10400,504
X102 a_15602_2131# VGND VGND VNB sky130_fd_pr__nfet_01v8 ad=0.0742 pd=0.91333 as=0.08256 ps=0.84921 w=0.42 l=0.15
**devattr s=2268,138 d=2268,138
X103 VPWR VGND a_4880_1787# w_3638_1702# sky130_fd_pr__pfet_01v8_hvt ad=0.0862 pd=0.83264 as=0.063 ps=0.72 w=0.42 l=0.15
**devattr s=2520,144 d=5914,269
X104 VGND sky130_fd_sc_hd__mux2_1_0.S a_16871_4938# VNB sky130_fd_pr__nfet_01v8 ad=0.08256 pd=0.84921 as=0.1092 ps=1.36 w=0.42 l=0.15
**devattr s=4368,272 d=5796,222
X105 a_11385_1773# VPWR a_11289_1773# w_11008_1688# sky130_fd_pr__pfet_01v8_hvt ad=0.0441 pd=0.63 as=0.0693 ps=0.75 w=0.42 l=0.15
**devattr s=2772,150 d=1764,126
X106 VGND sky130_fd_sc_hd__inv_1_2.A a_23511_14335# VNB sky130_fd_pr__nfet_01v8 ad=0.08256 pd=0.84921 as=0.1092 ps=1.36 w=0.42 l=0.15
**devattr s=4368,272 d=2268,138
X107 VGND VGND a_4213_5413# VNB sky130_fd_pr__nfet_01v8 ad=0.08256 pd=0.84921 as=0.05932 ps=0.7025 w=0.42 l=0.15
**devattr s=2478,143 d=2268,138
X108 VPWR VGND a_14136_4589# w_12894_4504# sky130_fd_pr__pfet_01v8_hvt ad=0.0862 pd=0.83264 as=0.063 ps=0.72 w=0.42 l=0.15
**devattr s=2520,144 d=5914,269
X109 VGND VGND a_15978_5825# VNB sky130_fd_pr__nfet_01v8 ad=0.08256 pd=0.84921 as=0.063 ps=0.72 w=0.42 l=0.15
**devattr s=2520,144 d=4094,199
X110 a_6805_15235# a_4847_14525# a_6717_15235# VNB sky130_fd_pr__nfet_01v8 ad=0.0798 pd=0.8 as=0.0609 ps=0.71 w=0.42 l=0.15
**devattr s=2436,142 d=3192,160
X111 a_7899_5405# a_6915_5043# VGND VNB sky130_fd_pr__nfet_01v8 ad=0.05932 pd=0.7025 as=0.08256 ps=0.84921 w=0.42 l=0.15
**devattr s=2268,138 d=2268,138
X112 VPWR VPWR a_13411_5463# w_12866_5378# sky130_fd_pr__pfet_01v8_hvt ad=0.0862 pd=0.83264 as=0.05932 ps=0.7025 w=0.42 l=0.15
**devattr s=2268,138 d=4368,272
X113 a_15239_2131# a_14255_1769# VGND VNB sky130_fd_pr__nfet_01v8 ad=0.05932 pd=0.7025 as=0.08256 ps=0.84921 w=0.42 l=0.15
**devattr s=2268,138 d=2268,138
X114 a_9727_11527# VGND VPWR w_9404_11491# sky130_fd_pr__pfet_01v8_hvt ad=0.17667 pd=1.68667 as=0.20523 ps=1.98249 w=1 l=0.15
**devattr s=5400,254 d=5400,254
X115 a_1920_1765# sky130_fd_sc_hd__inv_1_0.Y a_2145_2157# VNB sky130_fd_pr__nfet_01v8 ad=0.0693 pd=0.75 as=0.0441 ps=0.63 w=0.42 l=0.15
**devattr s=1764,126 d=2772,150
X116 a_14325_4589# a_13385_4845# VPWR w_12894_4504# sky130_fd_pr__pfet_01v8_hvt ad=0.26 pd=2.52 as=0.20523 ps=1.98249 w=1 l=0.15
**devattr s=5914,269 d=10400,504
X117 VPWR a_11230_4567# a_11178_4593# w_11078_4508# sky130_fd_pr__pfet_01v8_hvt ad=0.20523 pd=1.98249 as=0.26 ps=2.52 w=1 l=0.15
**devattr s=10400,504 d=5914,269
X118 VGND VPWR a_9753_4963# VNB sky130_fd_pr__nfet_01v8 ad=0.08256 pd=0.84921 as=0.05932 ps=0.7025 w=0.42 l=0.15
**devattr s=2268,138 d=4368,272
X119 sky130_fd_sc_hd__inv_1_4.A sky130_fd_sc_hd__inv_1_5.Y VPWR sky130_fd_sc_hd__inv_1_3.VPB sky130_fd_pr__pfet_01v8_hvt ad=0.26 pd=2.52 as=0.20523 ps=1.98249 w=1 l=0.15
**devattr s=10400,504 d=10400,504
X120 a_4546_1787# VGND VPWR w_3638_1702# sky130_fd_pr__pfet_01v8_hvt ad=0.0742 pd=0.91333 as=0.0862 ps=0.83264 w=0.42 l=0.15
**devattr s=2268,138 d=2268,138
X121 a_23677_14701# ui_in[1] ui_in[0] sky130_fd_sc_hd__mux4_1_0.VPB sky130_fd_pr__pfet_01v8_hvt ad=0.10855 pd=1.36 as=0.0742 ps=0.91333 w=0.42 l=0.15
**devattr s=2268,138 d=4316,272
X122 a_4905_12113# a_4627_12141# VPWR w_4530_12327# sky130_fd_pr__pfet_01v8_hvt ad=0.475 pd=2.95 as=0.20523 ps=1.98249 w=1 l=0.15
**devattr s=6662,278 d=19000,590
X123 a_4915_10549# a_4637_10577# VGND VNB sky130_fd_pr__nfet_01v8 ad=0.182 pd=1.86 as=0.12778 ps=1.31426 w=0.65 l=0.15
**devattr s=4472,208 d=7280,372
X124 a_9461_5837# VGND VGND VNB sky130_fd_pr__nfet_01v8 ad=0.0693 pd=0.75 as=0.08256 ps=0.84921 w=0.42 l=0.15
**devattr s=4094,199 d=2772,150
X125 a_14888_5433# a_14297_5463# a_15113_5825# VNB sky130_fd_pr__nfet_01v8 ad=0.0693 pd=0.75 as=0.0441 ps=0.63 w=0.42 l=0.15
**devattr s=1764,126 d=2772,150
X126 a_7815_2035# a_6885_1783# a_8232_1779# w_7324_1694# sky130_fd_pr__pfet_01v8_hvt ad=0.0567 pd=0.69 as=0.0742 ps=0.91333 w=0.42 l=0.15
**devattr s=2268,138 d=2268,138
X127 a_7605_2145# VGND VGND VNB sky130_fd_pr__nfet_01v8 ad=0.0693 pd=0.75 as=0.08256 ps=0.84921 w=0.42 l=0.15
**devattr s=4094,199 d=2772,150
X128 VPWR a_9809_14509# a_11597_15219# w_11532_15433# sky130_fd_pr__pfet_01v8_hvt ad=0.0862 pd=0.83264 as=0.06615 ps=0.735 w=0.42 l=0.15
**devattr s=2940,154 d=3108,158
X129 a_6087_14735# a_5809_14763# VGND VNB sky130_fd_pr__nfet_01v8 ad=0.182 pd=1.86 as=0.12778 ps=1.31426 w=0.65 l=0.15
**devattr s=4472,208 d=7280,372
X130 VGND a_6281_11907# a_7669_14003# VNB sky130_fd_pr__nfet_01v8 ad=0.08256 pd=0.84921 as=0.063 ps=0.72 w=0.42 l=0.15
**devattr s=2772,150 d=2268,138
X131 VGND VPWR a_2313_2157# VNB sky130_fd_pr__nfet_01v8 ad=0.08256 pd=0.84921 as=0.05932 ps=0.7025 w=0.42 l=0.15
**devattr s=2268,138 d=4368,272
X132 VGND VPWR a_11958_5833# VNB sky130_fd_pr__nfet_01v8 ad=0.08256 pd=0.84921 as=0.0742 ps=0.91333 w=0.42 l=0.15
**devattr s=4368,272 d=2268,138
X133 a_13243_5829# VPWR a_13147_5829# VNB sky130_fd_pr__nfet_01v8 ad=0.0441 pd=0.63 as=0.0693 ps=0.75 w=0.42 l=0.15
**devattr s=2772,150 d=1764,126
X134 a_9683_2143# a_9629_2033# a_9290_1751# VNB sky130_fd_pr__nfet_01v8 ad=0.05932 pd=0.7025 as=0.0693 ps=0.75 w=0.42 l=0.15
**devattr s=2772,150 d=2478,143
X135 VGND VGND a_9725_5837# VNB sky130_fd_pr__nfet_01v8 ad=0.08256 pd=0.84921 as=0.05932 ps=0.7025 w=0.42 l=0.15
**devattr s=2478,143 d=2268,138
X136 a_15672_4585# a_14946_4905# VPWR w_14764_4500# sky130_fd_pr__pfet_01v8_hvt ad=0.0742 pd=0.91333 as=0.0862 ps=0.83264 w=0.42 l=0.15
**devattr s=2268,138 d=2268,138
X137 a_13411_5463# a_13357_5719# a_13018_5437# w_12866_5378# sky130_fd_pr__pfet_01v8_hvt ad=0.05932 pd=0.7025 as=0.0693 ps=0.75 w=0.42 l=0.15
**devattr s=2772,150 d=2478,143
X138 VPWR VGND a_3010_1791# w_1768_1706# sky130_fd_pr__pfet_01v8_hvt ad=0.0862 pd=0.83264 as=0.063 ps=0.72 w=0.42 l=0.15
**devattr s=2520,144 d=5914,269
X139 a_4183_2153# a_3199_1791# VGND VNB sky130_fd_pr__nfet_01v8 ad=0.05932 pd=0.7025 as=0.08256 ps=0.84921 w=0.42 l=0.15
**devattr s=2268,138 d=2268,138
X140 a_5099_5047# a_4159_5303# VGND VNB sky130_fd_pr__nfet_01v8 ad=0.169 pd=1.82 as=0.12778 ps=1.31426 w=0.65 l=0.15
**devattr s=4094,199 d=6760,364
X141 a_11553_2139# a_10569_1777# VGND VNB sky130_fd_pr__nfet_01v8 ad=0.05932 pd=0.7025 as=0.08256 ps=0.84921 w=0.42 l=0.15
**devattr s=2268,138 d=2268,138
X142 VPWR VGND a_11623_4593# w_11078_4508# sky130_fd_pr__pfet_01v8_hvt ad=0.0862 pd=0.83264 as=0.05932 ps=0.7025 w=0.42 l=0.15
**devattr s=2478,143 d=2268,138
X143 a_4763_14525# VGND VGND VNB sky130_fd_pr__nfet_01v8 ad=0.08775 pd=0.92 as=0.12778 ps=1.31426 w=0.65 l=0.15
**devattr s=3510,184 d=3510,184
X144 a_15309_4585# a_14325_4589# VPWR w_14764_4500# sky130_fd_pr__pfet_01v8_hvt ad=0.05932 pd=0.7025 as=0.0862 ps=0.83264 w=0.42 l=0.15
**devattr s=2268,138 d=2268,138
X145 a_24962_14701# ui_in[0] a_24234_14385# VNB sky130_fd_pr__nfet_01v8 ad=0.15102 pd=1.285 as=0.0742 ps=0.91333 w=0.42 l=0.15
**devattr s=4368,272 d=6041,257
X146 a_4045_5047# VPWR a_3949_5047# w_3668_4962# sky130_fd_pr__pfet_01v8_hvt ad=0.0441 pd=0.63 as=0.0693 ps=0.75 w=0.42 l=0.15
**devattr s=2772,150 d=1764,126
X147 a_2259_2047# sky130_fd_sc_hd__inv_1_0.Y a_2676_1791# w_1768_1706# sky130_fd_pr__pfet_01v8_hvt ad=0.0567 pd=0.69 as=0.0742 ps=0.91333 w=0.42 l=0.15
**devattr s=2268,138 d=2268,138
X148 VPWR VGND a_13369_1769# w_12824_1684# sky130_fd_pr__pfet_01v8_hvt ad=0.0862 pd=0.83264 as=0.05932 ps=0.7025 w=0.42 l=0.15
**devattr s=2478,143 d=2268,138
X149 a_6696_1783# VPWR a_5945_2039# w_5454_1698# sky130_fd_pr__pfet_01v8_hvt ad=0.063 pd=0.72 as=0.0567 ps=0.69 w=0.42 l=0.15
**devattr s=2268,138 d=2520,144
X150 VPWR a_9290_1751# a_9238_1777# w_9138_1692# sky130_fd_pr__pfet_01v8_hvt ad=0.20523 pd=1.98249 as=0.26 ps=2.52 w=1 l=0.15
**devattr s=10400,504 d=5914,269
X151 a_1950_5025# Y a_2175_5417# VNB sky130_fd_pr__nfet_01v8 ad=0.0693 pd=0.75 as=0.0441 ps=0.63 w=0.42 l=0.15
**devattr s=1764,126 d=2772,150
X152 a_12631_13987# a_9877_10533# VGND VNB sky130_fd_pr__nfet_01v8 ad=0.063 pd=0.72 as=0.08256 ps=0.84921 w=0.42 l=0.15
**devattr s=4368,272 d=2772,150
X153 a_9589_12125# VGND VPWR w_9492_12311# sky130_fd_pr__pfet_01v8_hvt ad=0.0567 pd=0.69 as=0.0862 ps=0.83264 w=0.42 l=0.15
**devattr s=4704,280 d=2268,138
X154 a_11906_13629# a_11291_12911# a_11824_13629# w_11718_13593# sky130_fd_pr__pfet_01v8_hvt ad=0.0441 pd=0.63 as=0.1092 ps=1.36 w=0.42 l=0.15
**devattr s=4368,272 d=1764,126
X155 VGND VPWR a_6392_5409# VNB sky130_fd_pr__nfet_01v8 ad=0.08256 pd=0.84921 as=0.0742 ps=0.91333 w=0.42 l=0.15
**devattr s=4368,272 d=2268,138
X156 sky130_fd_sc_hd__inv_1_0.A a_15185_2021# VPWR w_14694_1680# sky130_fd_pr__pfet_01v8_hvt ad=0.26 pd=2.52 as=0.20523 ps=1.98249 w=1 l=0.15
**devattr s=5914,269 d=10400,504
X157 a_9753_4597# a_9699_4853# a_9360_4571# w_9208_4512# sky130_fd_pr__pfet_01v8_hvt ad=0.05932 pd=0.7025 as=0.0693 ps=0.75 w=0.42 l=0.15
**devattr s=2772,150 d=2478,143
X158 VPWR a_13018_5437# a_12966_5463# w_12866_5378# sky130_fd_pr__pfet_01v8_hvt ad=0.20523 pd=1.98249 as=0.26 ps=2.52 w=1 l=0.15
**devattr s=10400,504 d=5914,269
X159 VGND VPWR a_13732_2135# VNB sky130_fd_pr__nfet_01v8 ad=0.08256 pd=0.84921 as=0.0742 ps=0.91333 w=0.42 l=0.15
**devattr s=4368,272 d=2268,138
X160 a_6915_5043# a_5975_5299# VGND VNB sky130_fd_pr__nfet_01v8 ad=0.169 pd=1.82 as=0.12778 ps=1.31426 w=0.65 l=0.15
**devattr s=4094,199 d=6760,364
X161 a_7635_5405# VGND VGND VNB sky130_fd_pr__nfet_01v8 ad=0.0693 pd=0.75 as=0.08256 ps=0.84921 w=0.42 l=0.15
**devattr s=4094,199 d=2772,150
X162 a_12292_5467# VPWR a_11541_5723# w_11050_5382# sky130_fd_pr__pfet_01v8_hvt ad=0.063 pd=0.72 as=0.0567 ps=0.69 w=0.42 l=0.15
**devattr s=2268,138 d=2520,144
X163 a_14946_4905# a_14946_4905# a_16006_4951# VNB sky130_fd_pr__nfet_01v8 ad=0.07384 pd=0.80236 as=0.063 ps=0.72 w=0.42 l=0.15
**devattr s=2520,144 d=4094,199
X164 a_14975_2131# VGND VGND VNB sky130_fd_pr__nfet_01v8 ad=0.0693 pd=0.75 as=0.08256 ps=0.84921 w=0.42 l=0.15
**devattr s=4094,199 d=2772,150
X165 a_15185_2021# a_14255_1769# a_15602_1765# w_14694_1680# sky130_fd_pr__pfet_01v8_hvt ad=0.0567 pd=0.69 as=0.0742 ps=0.91333 w=0.42 l=0.15
**devattr s=2268,138 d=2268,138
X166 VPWR VGND a_9547_16323# w_9392_16287# sky130_fd_pr__pfet_01v8_hvt ad=0.20523 pd=1.98249 as=0.135 ps=1.27 w=1 l=0.15
**devattr s=5400,254 d=5400,254
X167 a_3040_5051# VPWR a_2289_5307# w_1798_4966# sky130_fd_pr__pfet_01v8_hvt ad=0.063 pd=0.72 as=0.0567 ps=0.69 w=0.42 l=0.15
**devattr s=2268,138 d=2520,144
X168 a_13201_1769# VPWR a_13105_1769# w_12824_1684# sky130_fd_pr__pfet_01v8_hvt ad=0.0441 pd=0.63 as=0.0693 ps=0.75 w=0.42 l=0.15
**devattr s=2772,150 d=1764,126
X169 a_8755_1779# a_7815_2035# VGND VNB sky130_fd_pr__nfet_01v8 ad=0.169 pd=1.82 as=0.12778 ps=1.31426 w=0.65 l=0.15
**devattr s=4094,199 d=6760,364
X170 a_5895_14763# a_4849_11293# a_5809_14763# VNB sky130_fd_pr__nfet_01v8 ad=0.0567 pd=0.69 as=0.1176 ps=1.4 w=0.42 l=0.15
**devattr s=4704,280 d=2268,138
X171 VGND VGND a_9475_14759# VNB sky130_fd_pr__nfet_01v8 ad=0.12778 pd=1.31426 as=0.08775 ps=0.92 w=0.65 l=0.15
**devattr s=3510,184 d=3510,184
X172 VGND VGND a_7899_5405# VNB sky130_fd_pr__nfet_01v8 ad=0.08256 pd=0.84921 as=0.05932 ps=0.7025 w=0.42 l=0.15
**devattr s=2478,143 d=2268,138
X173 VPWR a_3790_1761# a_3738_1787# w_3638_1702# sky130_fd_pr__pfet_01v8_hvt ad=0.20523 pd=1.98249 as=0.26 ps=2.52 w=1 l=0.15
**devattr s=10400,504 d=5914,269
X174 VGND VPWR a_4711_15373# VNB sky130_fd_pr__nfet_01v8 ad=0.08256 pd=0.84921 as=0.0567 ps=0.69 w=0.42 l=0.15
**devattr s=2268,138 d=4472,208
X175 VPWR a_9801_12841# a_10771_14747# w_10674_14933# sky130_fd_pr__pfet_01v8_hvt ad=0.0862 pd=0.83264 as=0.0567 ps=0.69 w=0.42 l=0.15
**devattr s=2268,138 d=6662,278
X176 a_5861_5043# VPWR a_5765_5043# w_5484_4958# sky130_fd_pr__pfet_01v8_hvt ad=0.0441 pd=0.63 as=0.0693 ps=0.75 w=0.42 l=0.15
**devattr s=2772,150 d=1764,126
X177 a_13147_5463# VGND VPWR w_12866_5378# sky130_fd_pr__pfet_01v8_hvt ad=0.0693 pd=0.75 as=0.0862 ps=0.83264 w=0.42 l=0.15
**devattr s=5914,269 d=2772,150
X178 VPWR a_9799_16073# a_11597_15219# w_11532_15433# sky130_fd_pr__pfet_01v8_hvt ad=0.0862 pd=0.83264 as=0.06615 ps=0.735 w=0.42 l=0.15
**devattr s=2352,140 d=12498,336
X179 a_14916_4559# a_14325_4589# a_15141_4951# VNB sky130_fd_pr__nfet_01v8 ad=0.0693 pd=0.75 as=0.0441 ps=0.63 w=0.42 l=0.15
**devattr s=1764,126 d=2772,150
X180 a_5069_1787# a_4129_2043# VPWR w_3638_1702# sky130_fd_pr__pfet_01v8_hvt ad=0.26 pd=2.52 as=0.20523 ps=1.98249 w=1 l=0.15
**devattr s=5914,269 d=10400,504
X181 a_10639_4597# a_9699_4853# VPWR w_9208_4512# sky130_fd_pr__pfet_01v8_hvt ad=0.26 pd=2.52 as=0.20523 ps=1.98249 w=1 l=0.15
**devattr s=5914,269 d=10400,504
X182 VGND VPWR a_2676_2157# VNB sky130_fd_pr__nfet_01v8 ad=0.08256 pd=0.84921 as=0.0742 ps=0.91333 w=0.42 l=0.15
**devattr s=4368,272 d=2268,138
X183 a_13271_4955# VPWR a_13175_4955# VNB sky130_fd_pr__nfet_01v8 ad=0.0441 pd=0.63 as=0.0693 ps=0.75 w=0.42 l=0.15
**devattr s=2772,150 d=1764,126
X184 VGND VGND a_4513_14775# VNB sky130_fd_pr__nfet_01v8 ad=0.12778 pd=1.31426 as=0.08775 ps=0.92 w=0.65 l=0.15
**devattr s=3510,184 d=3510,184
X185 a_9671_5727# VGND a_10088_5837# VNB sky130_fd_pr__nfet_01v8 ad=0.0567 pd=0.69 as=0.0742 ps=0.91333 w=0.42 l=0.15
**devattr s=2268,138 d=2268,138
X186 VPWR a_14916_4559# a_14864_4585# w_14764_4500# sky130_fd_pr__pfet_01v8_hvt ad=0.20523 pd=1.98249 as=0.26 ps=2.52 w=1 l=0.15
**devattr s=10400,504 d=5914,269
X187 a_11051_11919# a_9811_11277# a_10965_11919# VNB sky130_fd_pr__nfet_01v8 ad=0.0567 pd=0.69 as=0.1176 ps=1.4 w=0.42 l=0.15
**devattr s=4704,280 d=2268,138