* NGSPICE file created from tt_um_ohmy90_flat_adders.ext - technology: sky130A

.subckt tt_um_ohmy90_flat_adders clk ena rst_n ui_in[0] ui_in[1] ui_in[2] ui_in[3]
+ ui_in[4] ui_in[5] ui_in[6] ui_in[7] uio_in[0] uio_in[1] uio_in[2] uio_in[3] uio_in[4]
+ uio_in[5] uio_in[6] uio_in[7] uio_oe[0] uio_oe[1] uio_oe[2] uio_oe[3] uio_oe[4]
+ uio_oe[5] uio_oe[6] uio_oe[7] uio_out[0] uio_out[1] uio_out[2] uio_out[3] uio_out[4]
+ uio_out[5] uio_out[6] uio_out[7] uo_out[0] uo_out[1] uo_out[2] uo_out[3] uo_out[4]
+ uo_out[5] uo_out[6] uo_out[7] VDPWR VGND
X0 sky130_fd_sc_hd__dfxbp_1_3.CLK a_13161_23139# VDPWR VDPWR sky130_fd_pr__pfet_01v8_hvt ad=0.26 pd=2.52 as=0.20043 ps=1.90427 w=1 l=0.15
**devattr s=5400,254 d=10400,504
X1 VDPWR VGND a_12281_1793# VDPWR sky130_fd_pr__pfet_01v8_hvt ad=0.08418 pd=0.79979 as=0.05932 ps=0.7025 w=0.42 l=0.15
**devattr s=2478,143 d=2268,138
X2 VDPWR a_9703_16093# a_11501_15239# VDPWR sky130_fd_pr__pfet_01v8_hvt ad=0.08418 pd=0.79979 as=0.06615 ps=0.735 w=0.42 l=0.15
**devattr s=2352,140 d=12498,336
X3 a_24234_14385# ui_in[0] a_24152_14385# VGND sky130_fd_pr__nfet_01v8 ad=0.0742 pd=0.91333 as=0.10855 ps=1.36 w=0.42 l=0.15
**devattr s=4368,272 d=2268,138
X4 VGND a_9381_11547# a_9715_11297# VGND sky130_fd_pr__nfet_01v8 ad=0.12573 pd=1.30744 as=0.25025 ps=1.42 w=0.65 l=0.15
**devattr s=10010,284 d=8320,388
X5 VGND a_18671_29731# a_18671_30311# VGND sky130_fd_pr__nfet_01v8 ad=0.08124 pd=0.84481 as=0.1092 ps=1.36 w=0.42 l=0.15
**devattr s=4368,272 d=3880,195
X6 a_14729_22875# sky130_fd_sc_hd__dfxbp_1_3.Q_N VDPWR VDPWR sky130_fd_pr__pfet_01v8_hvt ad=0.05775 pd=0.695 as=0.08418 ps=0.79979 w=0.42 l=0.15
**devattr s=4368,272 d=2310,139
X7 a_16793_4785# a_15711_4547# a_17210_4895# VGND sky130_fd_pr__nfet_01v8 ad=0.0567 pd=0.69 as=0.0742 ps=0.91333 w=0.42 l=0.15
**devattr s=2268,138 d=2268,138
X8 VDPWR VGND a_16539_5473# VDPWR sky130_fd_pr__pfet_01v8_hvt ad=0.08418 pd=0.79979 as=0.05932 ps=0.7025 w=0.42 l=0.15
**devattr s=2478,143 d=2268,138
X9 a_16679_4895# VDPWR a_16583_4895# VGND sky130_fd_pr__nfet_01v8 ad=0.0441 pd=0.63 as=0.0693 ps=0.75 w=0.42 l=0.15
**devattr s=2772,150 d=1764,126
X10 a_4711_15373# VGND a_4625_15373# VGND sky130_fd_pr__nfet_01v8 ad=0.0567 pd=0.69 as=0.1176 ps=1.4 w=0.42 l=0.15
**devattr s=4704,280 d=2268,138
X11 a_5174_5409# VDPWR a_4423_5299# VGND sky130_fd_pr__nfet_01v8 ad=0.063 pd=0.72 as=0.0567 ps=0.69 w=0.42 l=0.15
**devattr s=2268,138 d=2520,144
X12 a_18625_4938# a_17733_4529# a_18553_4938# VDPWR sky130_fd_pr__pfet_01v8_hvt ad=0.1932 pd=1.34 as=0.0441 ps=0.63 w=0.42 l=0.15
**devattr s=1764,126 d=7728,268
X13 sky130_fd_sc_hd__inv_6_0.A sky130_fd_sc_hd__inv_4_0.A VGND VGND sky130_fd_pr__nfet_01v8 ad=0.08775 pd=0.92 as=0.12573 ps=1.30744 w=0.65 l=0.15
**devattr s=6760,364 d=3510,184
X14 VGND VGND a_9369_16343# VGND sky130_fd_pr__nfet_01v8 ad=0.12573 pd=1.30744 as=0.08775 ps=0.92 w=0.65 l=0.15
**devattr s=3510,184 d=3510,184
X15 VDPWR VGND a_2313_1791# VDPWR sky130_fd_pr__pfet_01v8_hvt ad=0.08418 pd=0.79979 as=0.05932 ps=0.7025 w=0.42 l=0.15
**devattr s=2478,143 d=2268,138
X16 sky130_fd_sc_hd__dfxbp_1_9.CLK a_18671_29731# VGND VGND sky130_fd_pr__nfet_01v8 ad=0.169 pd=1.82 as=0.12573 ps=1.30744 w=0.65 l=0.15
**devattr s=3510,184 d=6760,364
X17 a_12533_5715# a_11411_5471# a_12950_5825# VGND sky130_fd_pr__nfet_01v8 ad=0.0567 pd=0.69 as=0.0742 ps=0.91333 w=0.42 l=0.15
**devattr s=2268,138 d=2268,138
X18 a_14545_5467# a_14491_5723# a_14152_5441# VDPWR sky130_fd_pr__pfet_01v8_hvt ad=0.05932 pd=0.7025 as=0.0693 ps=0.75 w=0.42 l=0.15
**devattr s=2772,150 d=2478,143
X19 a_1950_5025# a_2217_5025# a_2175_5051# VDPWR sky130_fd_pr__pfet_01v8_hvt ad=0.0693 pd=0.75 as=0.0441 ps=0.63 w=0.42 l=0.15
**devattr s=1764,126 d=2772,150
X20 a_12419_5825# VDPWR a_12323_5825# VGND sky130_fd_pr__nfet_01v8 ad=0.0441 pd=0.63 as=0.0693 ps=0.75 w=0.42 l=0.15
**devattr s=2772,150 d=1764,126
X21 VDPWR a_12194_5433# a_12142_5459# VDPWR sky130_fd_pr__pfet_01v8_hvt ad=0.20043 pd=1.90427 as=0.26 ps=2.52 w=1 l=0.15
**devattr s=10400,504 d=5914,269
X22 a_16033_2159# VGND VGND VGND sky130_fd_pr__nfet_01v8 ad=0.0693 pd=0.75 as=0.08124 ps=0.84481 w=0.42 l=0.15
**devattr s=4094,199 d=2772,150
X23 a_18667_34470# a_18667_33636# a_18667_33834# VGND sky130_fd_pr__special_nfet_01v8 ad=0.0684 pd=0.74 as=0.07121 ps=0.7164 w=0.36 l=0.15
**devattr s=3956,199 d=2736,148
X24 sky130_fd_sc_hd__dfxbp_1_6.Q_N a_18671_30311# VGND VGND sky130_fd_pr__nfet_01v8 ad=0.169 pd=1.82 as=0.12573 ps=1.30744 w=0.65 l=0.15
**devattr s=3880,195 d=6760,364
X25 a_17236_5839# VDPWR a_16485_5729# VGND sky130_fd_pr__nfet_01v8 ad=0.063 pd=0.72 as=0.0567 ps=0.69 w=0.42 l=0.15
**devattr s=2268,138 d=2520,144
X26 a_4513_14775# VDPWR VGND VGND sky130_fd_pr__nfet_01v8 ad=0.08775 pd=0.92 as=0.12573 ps=1.30744 w=0.65 l=0.15
**devattr s=6760,364 d=3510,184
X27 a_6129_12927# a_4913_13781# a_6057_12927# VGND sky130_fd_pr__nfet_01v8 ad=0.0441 pd=0.63 as=0.0441 ps=0.63 w=0.42 l=0.15
**devattr s=1764,126 d=1764,126
X28 VGND VGND a_16297_2159# VGND sky130_fd_pr__nfet_01v8 ad=0.08124 pd=0.84481 as=0.05932 ps=0.7025 w=0.42 l=0.15
**devattr s=2478,143 d=2268,138
X29 sky130_fd_sc_hd__inv_4_0.A sky130_fd_sc_hd__inv_2_0.A VDPWR VDPWR sky130_fd_pr__pfet_01v8_hvt ad=0.135 pd=1.27 as=0.20043 ps=1.90427 w=1 l=0.15
**devattr s=10400,504 d=5400,254
X30 sky130_fd_sc_hd__dfxbp_1_8.Q_N a_18667_34839# VDPWR VDPWR sky130_fd_pr__pfet_01v8_hvt ad=0.26 pd=2.52 as=0.20043 ps=1.90427 w=1 l=0.15
**devattr s=6160,267 d=10400,504
X31 a_18697_29647# a_18671_29108# a_18671_29942# VDPWR sky130_fd_pr__pfet_01v8_hvt ad=0.0882 pd=0.84 as=0.0567 ps=0.69 w=0.42 l=0.15
**devattr s=2268,138 d=3528,168
X32 a_9715_11297# a_9381_11547# a_9631_11547# VDPWR sky130_fd_pr__pfet_01v8_hvt ad=0.3 pd=2.6 as=0.17667 ps=1.68667 w=1 l=0.15
**devattr s=10400,504 d=12000,520
X33 a_7113_13395# a_6862_13645# VGND VGND sky130_fd_pr__nfet_01v8 ad=0.169 pd=1.82 as=0.12573 ps=1.30744 w=0.65 l=0.15
**devattr s=4010,197 d=6760,364
X34 a_12323_5459# VGND VDPWR VDPWR sky130_fd_pr__pfet_01v8_hvt ad=0.0693 pd=0.75 as=0.08418 ps=0.79979 w=0.42 l=0.15
**devattr s=5914,269 d=2772,150
X35 VGND a_19235_17155# a_18113_17153# VGND sky130_fd_pr__nfet_01v8 ad=0.12573 pd=1.30744 as=0.169 ps=1.82 w=0.65 l=0.15
**devattr s=6760,364 d=6760,364
X36 a_11255_13773# a_10717_13773# VDPWR VDPWR sky130_fd_pr__pfet_01v8_hvt ad=0.26 pd=2.52 as=0.20043 ps=1.90427 w=1 l=0.15
**devattr s=12498,336 d=10400,504
X37 VDPWR VGND a_7032_1787# VDPWR sky130_fd_pr__pfet_01v8_hvt ad=0.08418 pd=0.79979 as=0.063 ps=0.72 w=0.42 l=0.15
**devattr s=2520,144 d=5914,269
X38 a_11501_15239# a_8193_13753# VDPWR VDPWR sky130_fd_pr__pfet_01v8_hvt ad=0.06615 pd=0.735 as=0.08418 ps=0.79979 w=0.42 l=0.15
**devattr s=4368,272 d=2940,154
X39 a_4383_2153# a_4329_2043# a_3990_1761# VGND sky130_fd_pr__nfet_01v8 ad=0.05932 pd=0.7025 as=0.0693 ps=0.75 w=0.42 l=0.15
**devattr s=2772,150 d=2478,143
X40 uo_out[0] sky130_fd_sc_hd__inv_16_0.A VDPWR VDPWR sky130_fd_pr__pfet_01v8_hvt ad=0.135 pd=1.27 as=0.20043 ps=1.90427 w=1 l=0.15
**devattr s=5400,254 d=5400,254
X41 a_14281_5833# VGND VGND VGND sky130_fd_pr__nfet_01v8 ad=0.0693 pd=0.75 as=0.08124 ps=0.84481 w=0.42 l=0.15
**devattr s=4094,199 d=2772,150
X42 VGND sky130_fd_sc_hd__inv_6_0.A sky130_fd_sc_hd__inv_8_0.A VGND sky130_fd_pr__nfet_01v8 ad=0.12573 pd=1.30744 as=0.08775 ps=0.92 w=0.65 l=0.15
**devattr s=3510,184 d=3510,184
X43 VDPWR VGND a_4587_13107# VDPWR sky130_fd_pr__pfet_01v8_hvt ad=0.20043 pd=1.90427 as=0.135 ps=1.27 w=1 l=0.15
**devattr s=5400,254 d=5400,254
X44 a_9631_11297# VGND VGND VGND sky130_fd_pr__nfet_01v8 ad=0.08775 pd=0.92 as=0.12573 ps=1.30744 w=0.65 l=0.15
**devattr s=3510,184 d=3510,184
X45 a_8169_1793# VDPWR a_8073_1793# VDPWR sky130_fd_pr__pfet_01v8_hvt ad=0.0441 pd=0.63 as=0.0693 ps=0.75 w=0.42 l=0.15
**devattr s=2772,150 d=1764,126
X46 a_14771_4803# a_13709_4553# a_15188_4547# VDPWR sky130_fd_pr__pfet_01v8_hvt ad=0.0567 pd=0.69 as=0.0742 ps=0.91333 w=0.42 l=0.15
**devattr s=2268,138 d=2268,138
X47 a_22274_16171# a_21506_16181# VDPWR VDPWR sky130_fd_pr__pfet_01v8_hvt ad=0.26 pd=2.52 as=0.20043 ps=1.90427 w=1 l=0.15
**devattr s=10400,504 d=10400,504
X48 a_2175_5417# VDPWR a_2079_5417# VGND sky130_fd_pr__nfet_01v8 ad=0.0441 pd=0.63 as=0.0693 ps=0.75 w=0.42 l=0.15
**devattr s=2772,150 d=1764,126
X49 a_6089_11935# a_4849_11293# a_6003_11935# VGND sky130_fd_pr__nfet_01v8 ad=0.0567 pd=0.69 as=0.1176 ps=1.4 w=0.42 l=0.15
**devattr s=4704,280 d=2268,138
X50 VDPWR VDPWR a_14596_1793# VDPWR sky130_fd_pr__pfet_01v8_hvt ad=0.08418 pd=0.79979 as=0.0742 ps=0.91333 w=0.42 l=0.15
**devattr s=4368,272 d=2268,138
X51 VGND a_11888_1767# a_11836_1793# VGND sky130_fd_pr__nfet_01v8 ad=0.12573 pd=1.30744 as=0.169 ps=1.82 w=0.65 l=0.15
**devattr s=6760,364 d=4094,199
X52 a_10289_2159# a_10235_2049# a_9896_1767# VGND sky130_fd_pr__nfet_01v8 ad=0.05932 pd=0.7025 as=0.0693 ps=0.75 w=0.42 l=0.15
**devattr s=2772,150 d=2478,143
X53 a_12697_14007# a_9781_10553# a_12615_14007# VDPWR sky130_fd_pr__pfet_01v8_hvt ad=0.0693 pd=0.75 as=0.1092 ps=1.36 w=0.42 l=0.15
**devattr s=4368,272 d=2772,150
X54 VDPWR VGND a_4597_11543# VDPWR sky130_fd_pr__pfet_01v8_hvt ad=0.20043 pd=1.90427 as=0.135 ps=1.27 w=1 l=0.15
**devattr s=5400,254 d=5400,254
X55 a_7221_1787# a_6281_2043# VDPWR VDPWR sky130_fd_pr__pfet_01v8_hvt ad=0.26 pd=2.52 as=0.20043 ps=1.90427 w=1 l=0.15
**devattr s=5914,269 d=10400,504
X56 sky130_fd_sc_hd__inv_8_0.A sky130_fd_sc_hd__inv_6_0.A VGND VGND sky130_fd_pr__nfet_01v8 ad=0.08775 pd=0.92 as=0.12573 ps=1.30744 w=0.65 l=0.15
**devattr s=3510,184 d=3510,184
X57 a_18671_29438# a_18671_29203# a_18697_29053# VGND sky130_fd_pr__special_nfet_01v8 ad=0.0621 pd=0.705 as=0.07505 ps=0.76615 w=0.36 l=0.15
**devattr s=3252,166 d=2484,141
X58 a_18663_27120# a_18663_27252# VDPWR VDPWR sky130_fd_pr__pfet_01v8_hvt ad=0.14038 pd=1.37821 as=0.15033 ps=1.4282 w=0.75 l=0.15
**devattr s=7155,252 d=4380,215
X59 VDPWR VDPWR a_9491_15377# VDPWR sky130_fd_pr__pfet_01v8_hvt ad=0.08418 pd=0.79979 as=0.0567 ps=0.69 w=0.42 l=0.15
**devattr s=2268,138 d=6662,278
X60 VDPWR VDPWR a_6792_5043# VDPWR sky130_fd_pr__pfet_01v8_hvt ad=0.08418 pd=0.79979 as=0.0742 ps=0.91333 w=0.42 l=0.15
**devattr s=4368,272 d=2268,138
X61 VDPWR VDPWR a_14825_4547# VDPWR sky130_fd_pr__pfet_01v8_hvt ad=0.08418 pd=0.79979 as=0.05932 ps=0.7025 w=0.42 l=0.15
**devattr s=2268,138 d=4368,272
X62 a_12644_2159# VGND VGND VGND sky130_fd_pr__nfet_01v8 ad=0.0742 pd=0.91333 as=0.08124 ps=0.84481 w=0.42 l=0.15
**devattr s=2268,138 d=2268,138
X63 VDPWR VDPWR a_16660_1793# VDPWR sky130_fd_pr__pfet_01v8_hvt ad=0.08418 pd=0.79979 as=0.0742 ps=0.91333 w=0.42 l=0.15
**devattr s=4368,272 d=2268,138
X64 VDPWR VDPWR a_16847_4529# VDPWR sky130_fd_pr__pfet_01v8_hvt ad=0.08418 pd=0.79979 as=0.05932 ps=0.7025 w=0.42 l=0.15
**devattr s=2268,138 d=4368,272
X65 a_9629_14779# VGND VDPWR VDPWR sky130_fd_pr__pfet_01v8_hvt ad=0.17667 pd=1.68667 as=0.20043 ps=1.90427 w=1 l=0.15
**devattr s=5400,254 d=5400,254
X66 a_10525_5837# a_10471_5727# a_10132_5445# VGND sky130_fd_pr__nfet_01v8 ad=0.05932 pd=0.7025 as=0.0693 ps=0.75 w=0.42 l=0.15
**devattr s=2772,150 d=2478,143
X67 a_18693_24621# sky130_fd_sc_hd__dfxbp_1_5.Q_N VGND VGND sky130_fd_pr__nfet_01v8 ad=0.08755 pd=0.89385 as=0.08124 ps=0.84481 w=0.42 l=0.15
**devattr s=4368,272 d=3252,166
X68 VDPWR VGND a_14233_1793# VDPWR sky130_fd_pr__pfet_01v8_hvt ad=0.08418 pd=0.79979 as=0.05932 ps=0.7025 w=0.42 l=0.15
**devattr s=2478,143 d=2268,138
X69 a_5942_1761# a_5269_1787# a_6167_2153# VGND sky130_fd_pr__nfet_01v8 ad=0.0693 pd=0.75 as=0.0441 ps=0.63 w=0.42 l=0.15
**devattr s=1764,126 d=2772,150
X70 VGND a_18671_29731# a_19063_29704# VGND sky130_fd_pr__nfet_01v8 ad=0.08124 pd=0.84481 as=0.07108 ps=0.80231 w=0.42 l=0.15
**devattr s=2640,149 d=4368,272
X71 a_6238_6077# a_18625_4938# VDPWR VDPWR sky130_fd_pr__pfet_01v8_hvt ad=0.26 pd=2.52 as=0.20043 ps=1.90427 w=1 l=0.15
**devattr s=6334,279 d=10400,504
X72 a_18693_31479# a_18667_31449# a_18667_31684# VDPWR sky130_fd_pr__pfet_01v8_hvt ad=0.07665 pd=0.785 as=0.06825 ps=0.745 w=0.42 l=0.15
**devattr s=2730,149 d=3066,157
X73 VDPWR VDPWR a_10289_1793# VDPWR sky130_fd_pr__pfet_01v8_hvt ad=0.08418 pd=0.79979 as=0.05932 ps=0.7025 w=0.42 l=0.15
**devattr s=2268,138 d=4368,272
X74 VGND a_1920_1765# a_1868_1791# VGND sky130_fd_pr__nfet_01v8 ad=0.12573 pd=1.30744 as=0.169 ps=1.82 w=0.65 l=0.15
**devattr s=6760,364 d=4094,199
X75 a_8038_5023# a_7315_5043# a_8263_5049# VDPWR sky130_fd_pr__pfet_01v8_hvt ad=0.0693 pd=0.75 as=0.0441 ps=0.63 w=0.42 l=0.15
**devattr s=1764,126 d=2772,150
X76 VDPWR sky130_fd_sc_hd__inv_12_0.A sky130_fd_sc_hd__inv_16_0.A VDPWR sky130_fd_pr__pfet_01v8_hvt ad=0.20043 pd=1.90427 as=0.135 ps=1.27 w=1 l=0.15
**devattr s=5400,254 d=20600,606
X77 sky130_fd_sc_hd__inv_12_0.A sky130_fd_sc_hd__inv_8_0.A VGND VGND sky130_fd_pr__nfet_01v8 ad=0.08775 pd=0.92 as=0.12573 ps=1.30744 w=0.65 l=0.15
**devattr s=6760,364 d=3510,184
X78 a_18693_31299# sky130_fd_sc_hd__dfxbp_1_9.Q_N VDPWR VDPWR sky130_fd_pr__pfet_01v8_hvt ad=0.05775 pd=0.695 as=0.08418 ps=0.79979 w=0.42 l=0.15
**devattr s=4368,272 d=2310,139
X79 VDPWR a_18671_29731# a_18697_29647# VDPWR sky130_fd_pr__pfet_01v8_hvt ad=0.08418 pd=0.79979 as=0.0882 ps=0.84 w=0.42 l=0.15
**devattr s=3528,168 d=4452,274
X80 a_19059_25272# a_18667_24771# a_18667_25510# VGND sky130_fd_pr__special_nfet_01v8 ad=0.06092 pd=0.68769 as=0.0684 ps=0.74 w=0.36 l=0.15
**devattr s=2736,148 d=2640,149
X81 VDPWR a_9556_17271# a_6629_15387# VDPWR sky130_fd_pr__pfet_01v8_hvt ad=0.20043 pd=1.90427 as=0.26 ps=2.52 w=1 l=0.15
**devattr s=10400,504 d=10400,504
X82 a_7126_5409# VDPWR a_6375_5299# VGND sky130_fd_pr__nfet_01v8 ad=0.063 pd=0.72 as=0.0567 ps=0.69 w=0.42 l=0.15
**devattr s=2268,138 d=2520,144
X83 VDPWR VDPWR a_4753_16339# VDPWR sky130_fd_pr__pfet_01v8_hvt ad=0.20043 pd=1.90427 as=0.17667 ps=1.68667 w=1 l=0.15
**devattr s=5400,254 d=10400,504
X84 VGND VGND a_5174_5409# VGND sky130_fd_pr__nfet_01v8 ad=0.08124 pd=0.84481 as=0.063 ps=0.72 w=0.42 l=0.15
**devattr s=2520,144 d=4094,199
X85 a_12769_4809# a_11439_4597# a_13186_4553# VDPWR sky130_fd_pr__pfet_01v8_hvt ad=0.0567 pd=0.69 as=0.0742 ps=0.91333 w=0.42 l=0.15
**devattr s=2268,138 d=2268,138
X86 VGND sky130_fd_sc_hd__inv_2_0.A sky130_fd_sc_hd__inv_4_0.A VGND sky130_fd_pr__nfet_01v8 ad=0.12573 pd=1.30744 as=0.08775 ps=0.92 w=0.65 l=0.15
**devattr s=3510,184 d=6760,364
X87 VDPWR a_18667_31552# a_18693_31479# VDPWR sky130_fd_pr__pfet_01v8_hvt ad=0.08418 pd=0.79979 as=0.07665 ps=0.785 w=0.42 l=0.15
**devattr s=3066,157 d=7155,252
X88 a_17096_23241# a_16657_22875# a_17011_22875# VGND sky130_fd_pr__special_nfet_01v8 ad=0.0621 pd=0.705 as=0.07505 ps=0.76615 w=0.36 l=0.15
**devattr s=3252,166 d=2484,141
X89 VDPWR VDPWR a_4746_1787# VDPWR sky130_fd_pr__pfet_01v8_hvt ad=0.08418 pd=0.79979 as=0.0742 ps=0.91333 w=0.42 l=0.15
**devattr s=4368,272 d=2268,138
X90 VDPWR VDPWR a_8431_5049# VDPWR sky130_fd_pr__pfet_01v8_hvt ad=0.08418 pd=0.79979 as=0.05932 ps=0.7025 w=0.42 l=0.15
**devattr s=2268,138 d=4368,272
X91 VDPWR a_14982_22987# a_14909_23241# VDPWR sky130_fd_pr__pfet_01v8_hvt ad=0.08418 pd=0.79979 as=0.07665 ps=0.785 w=0.42 l=0.15
**devattr s=3066,157 d=7155,252
X92 a_4903_15345# a_4625_15373# VGND VGND sky130_fd_pr__nfet_01v8 ad=0.182 pd=1.86 as=0.12573 ps=1.30744 w=0.65 l=0.15
**devattr s=4472,208 d=7280,372
X93 VDPWR sky130_fd_sc_hd__inv_16_0.A uo_out[0] VDPWR sky130_fd_pr__pfet_01v8_hvt ad=0.20043 pd=1.90427 as=0.135 ps=1.27 w=1 l=0.15
**devattr s=5400,254 d=5400,254
X94 VGND sky130_fd_sc_hd__dfxbp_1_7.Q a_18671_29203# VGND sky130_fd_pr__nfet_01v8 ad=0.08124 pd=0.84481 as=0.1092 ps=1.36 w=0.42 l=0.15
**devattr s=4368,272 d=2268,138
X95 VGND a_15407_23143# a_15365_22875# VGND sky130_fd_pr__nfet_01v8 ad=0.08124 pd=0.84481 as=0.07108 ps=0.80231 w=0.42 l=0.15
**devattr s=2640,149 d=4368,272
X96 VDPWR VDPWR a_4763_14775# VDPWR sky130_fd_pr__pfet_01v8_hvt ad=0.20043 pd=1.90427 as=0.17667 ps=1.68667 w=1 l=0.15
**devattr s=5400,254 d=10400,504
X97 VDPWR VDPWR a_12823_4553# VDPWR sky130_fd_pr__pfet_01v8_hvt ad=0.08418 pd=0.79979 as=0.05932 ps=0.7025 w=0.42 l=0.15
**devattr s=2268,138 d=4368,272
X98 a_13520_4919# VDPWR a_12769_4809# VGND sky130_fd_pr__nfet_01v8 ad=0.063 pd=0.72 as=0.0567 ps=0.69 w=0.42 l=0.15
**devattr s=2268,138 d=2520,144
X99 a_18693_25215# a_18667_24676# a_18667_25510# VDPWR sky130_fd_pr__pfet_01v8_hvt ad=0.0882 pd=0.84 as=0.0567 ps=0.69 w=0.42 l=0.15
**devattr s=2268,138 d=3528,168
X100 a_4913_13781# a_4635_13809# VGND VGND sky130_fd_pr__nfet_01v8 ad=0.182 pd=1.86 as=0.12573 ps=1.30744 w=0.65 l=0.15
**devattr s=4472,208 d=7280,372
X101 VGND a_15693_17123# a_15641_17149# VGND sky130_fd_pr__nfet_01v8 ad=0.12573 pd=1.30744 as=0.169 ps=1.82 w=0.65 l=0.15
**devattr s=6760,364 d=6760,364
X102 VGND VDPWR a_17210_4895# VGND sky130_fd_pr__nfet_01v8 ad=0.08124 pd=0.84481 as=0.0742 ps=0.91333 w=0.42 l=0.15
**devattr s=4368,272 d=2268,138
X103 a_10160_4571# VDPWR a_10385_4963# VGND sky130_fd_pr__nfet_01v8 ad=0.0693 pd=0.75 as=0.0441 ps=0.63 w=0.42 l=0.15
**devattr s=1764,126 d=2772,150
X104 a_4084_5017# a_3229_5051# a_4309_5409# VGND sky130_fd_pr__nfet_01v8 ad=0.0693 pd=0.75 as=0.0441 ps=0.63 w=0.42 l=0.15
**devattr s=1764,126 d=2772,150
X105 VGND VGND a_14930_2159# VGND sky130_fd_pr__nfet_01v8 ad=0.08124 pd=0.84481 as=0.063 ps=0.72 w=0.42 l=0.15
**devattr s=2520,144 d=4094,199
X106 a_8645_23241# a_7863_22875# a_8561_23241# VDPWR sky130_fd_pr__pfet_01v8_hvt ad=0.0882 pd=0.84 as=0.0567 ps=0.69 w=0.42 l=0.15
**devattr s=2268,138 d=3528,168
X107 a_17011_22875# sky130_fd_sc_hd__dfxbp_1_4.Q_N VGND VGND sky130_fd_pr__nfet_01v8 ad=0.08755 pd=0.89385 as=0.08124 ps=0.84481 w=0.42 l=0.15
**devattr s=4368,272 d=3252,166
X108 a_16847_4895# a_15711_4547# VGND VGND sky130_fd_pr__nfet_01v8 ad=0.05932 pd=0.7025 as=0.08124 ps=0.84481 w=0.42 l=0.15
**devattr s=2268,138 d=2268,138
X109 VGND sky130_fd_sc_hd__inv_12_0.A sky130_fd_sc_hd__inv_16_0.A VGND sky130_fd_pr__nfet_01v8 ad=0.12573 pd=1.30744 as=0.08775 ps=0.92 w=0.65 l=0.15
**devattr s=3510,184 d=3510,184
X110 a_4723_10577# VGND a_4637_10577# VGND sky130_fd_pr__nfet_01v8 ad=0.0567 pd=0.69 as=0.1176 ps=1.4 w=0.42 l=0.15
**devattr s=4704,280 d=2268,138
X111 a_15431_5467# a_14491_5723# VGND VGND sky130_fd_pr__nfet_01v8 ad=0.169 pd=1.82 as=0.12573 ps=1.30744 w=0.65 l=0.15
**devattr s=4094,199 d=6760,364
X112 a_4587_13107# VDPWR a_4505_13107# VDPWR sky130_fd_pr__pfet_01v8_hvt ad=0.135 pd=1.27 as=0.26 ps=2.52 w=1 l=0.15
**devattr s=10400,504 d=5400,254
X113 VGND VGND a_9381_11547# VGND sky130_fd_pr__nfet_01v8 ad=0.12573 pd=1.30744 as=0.08775 ps=0.92 w=0.65 l=0.15
**devattr s=3510,184 d=3510,184
X114 a_16146_5447# a_15431_5467# a_16371_5839# VGND sky130_fd_pr__nfet_01v8 ad=0.0693 pd=0.75 as=0.0441 ps=0.63 w=0.42 l=0.15
**devattr s=1764,126 d=2772,150
X115 a_14377_5467# VDPWR a_14281_5467# VDPWR sky130_fd_pr__pfet_01v8_hvt ad=0.0441 pd=0.63 as=0.0693 ps=0.75 w=0.42 l=0.15
**devattr s=2772,150 d=1764,126
X116 a_2079_5051# VGND VDPWR VDPWR sky130_fd_pr__pfet_01v8_hvt ad=0.0693 pd=0.75 as=0.08418 ps=0.79979 w=0.42 l=0.15
**devattr s=5914,269 d=2772,150
X117 a_16902_5839# VGND VGND VGND sky130_fd_pr__nfet_01v8 ad=0.0742 pd=0.91333 as=0.08124 ps=0.84481 w=0.42 l=0.15
**devattr s=2268,138 d=2268,138
X118 a_9223_1793# a_8283_2049# VGND VGND sky130_fd_pr__nfet_01v8 ad=0.169 pd=1.82 as=0.12573 ps=1.30744 w=0.65 l=0.15
**devattr s=4094,199 d=6760,364
X119 VGND VDPWR a_16539_5839# VGND sky130_fd_pr__nfet_01v8 ad=0.08124 pd=0.84481 as=0.05932 ps=0.7025 w=0.42 l=0.15
**devattr s=2268,138 d=4368,272
X120 VDPWR a_17345_17163# a_16471_17161# VDPWR sky130_fd_pr__pfet_01v8_hvt ad=0.20043 pd=1.90427 as=0.26 ps=2.52 w=1 l=0.15
**devattr s=10400,504 d=10400,504
X121 a_4597_11543# VDPWR a_4515_11543# VDPWR sky130_fd_pr__pfet_01v8_hvt ad=0.135 pd=1.27 as=0.26 ps=2.52 w=1 l=0.15
**devattr s=10400,504 d=5400,254
X122 sky130_fd_sc_hd__inv_16_0.A sky130_fd_sc_hd__inv_12_0.A VDPWR VDPWR sky130_fd_pr__pfet_01v8_hvt ad=0.135 pd=1.27 as=0.20043 ps=1.90427 w=1 l=0.15
**devattr s=5400,254 d=5400,254
X123 a_9491_15377# VGND VDPWR VDPWR sky130_fd_pr__pfet_01v8_hvt ad=0.0567 pd=0.69 as=0.08418 ps=0.79979 w=0.42 l=0.15
**devattr s=4704,280 d=2268,138
X124 a_6944_13645# a_6329_12927# a_6862_13645# VDPWR sky130_fd_pr__pfet_01v8_hvt ad=0.0441 pd=0.63 as=0.1092 ps=1.36 w=0.42 l=0.15
**devattr s=4368,272 d=1764,126
X125 a_10132_5445# VGND a_10357_5471# VDPWR sky130_fd_pr__pfet_01v8_hvt ad=0.0693 pd=0.75 as=0.0441 ps=0.63 w=0.42 l=0.15
**devattr s=1764,126 d=2772,150
X126 VGND a_13840_1767# a_13788_1793# VGND sky130_fd_pr__nfet_01v8 ad=0.12573 pd=1.30744 as=0.169 ps=1.82 w=0.65 l=0.15
**devattr s=6760,364 d=4094,199
X127 a_8700_1793# VGND VDPWR VDPWR sky130_fd_pr__pfet_01v8_hvt ad=0.0742 pd=0.91333 as=0.08418 ps=0.79979 w=0.42 l=0.15
**devattr s=2268,138 d=2268,138
X128 a_4635_13809# VGND VDPWR VDPWR sky130_fd_pr__pfet_01v8_hvt ad=0.0567 pd=0.69 as=0.08418 ps=0.79979 w=0.42 l=0.15
**devattr s=4704,280 d=2268,138
X129 a_2706_5417# VGND VGND VGND sky130_fd_pr__nfet_01v8 ad=0.0742 pd=0.91333 as=0.08124 ps=0.84481 w=0.42 l=0.15
**devattr s=2268,138 d=2268,138
X130 VDPWR VGND a_2343_5051# VDPWR sky130_fd_pr__pfet_01v8_hvt ad=0.08418 pd=0.79979 as=0.05932 ps=0.7025 w=0.42 l=0.15
**devattr s=2478,143 d=2268,138
X131 VGND a_4513_14775# a_4847_14525# VGND sky130_fd_pr__nfet_01v8 ad=0.12573 pd=1.30744 as=0.25025 ps=1.42 w=0.65 l=0.15
**devattr s=10010,284 d=8320,388
X132 a_10986_2159# VDPWR a_10235_2049# VGND sky130_fd_pr__nfet_01v8 ad=0.063 pd=0.72 as=0.0567 ps=0.69 w=0.42 l=0.15
**devattr s=2268,138 d=2520,144
X133 a_4215_2153# VDPWR a_4119_2153# VGND sky130_fd_pr__nfet_01v8 ad=0.0441 pd=0.63 as=0.0693 ps=0.75 w=0.42 l=0.15
**devattr s=2772,150 d=1764,126
X134 sky130_fd_sc_hd__dfxbp_1_7.Q a_18663_27545# VGND VGND sky130_fd_pr__nfet_01v8 ad=0.169 pd=1.82 as=0.12573 ps=1.30744 w=0.65 l=0.15
**devattr s=3510,184 d=6760,364
X135 a_10550_22991# a_10382_23245# VGND VGND sky130_fd_pr__nfet_01v8 ad=0.12659 pd=1.2736 as=0.12379 ps=1.28732 w=0.64 l=0.15
**devattr s=4838,217 d=3956,199
X136 a_17096_23241# a_16823_22875# a_17011_22875# VDPWR sky130_fd_pr__pfet_01v8_hvt ad=0.06825 pd=0.745 as=0.05775 ps=0.695 w=0.42 l=0.15
**devattr s=2310,139 d=2730,149
X137 VGND a_11979_13399# a_12615_14007# VGND sky130_fd_pr__nfet_01v8 ad=0.08124 pd=0.84481 as=0.063 ps=0.72 w=0.42 l=0.15
**devattr s=2268,138 d=4075,198
X138 VGND VGND a_12978_2159# VGND sky130_fd_pr__nfet_01v8 ad=0.08124 pd=0.84481 as=0.063 ps=0.72 w=0.42 l=0.15
**devattr s=2520,144 d=4094,199
X139 VGND a_17689_23143# a_18120_23197# VGND sky130_fd_pr__nfet_01v8 ad=0.08124 pd=0.84481 as=0.1092 ps=1.36 w=0.42 l=0.15
**devattr s=4368,272 d=3880,195
X140 a_9779_13785# a_9501_13813# VDPWR VDPWR sky130_fd_pr__pfet_01v8_hvt ad=0.475 pd=2.95 as=0.20043 ps=1.90427 w=1 l=0.15
**devattr s=6662,278 d=19000,590
X141 a_10888_5471# VGND VDPWR VDPWR sky130_fd_pr__pfet_01v8_hvt ad=0.0742 pd=0.91333 as=0.08418 ps=0.79979 w=0.42 l=0.15
**devattr s=2268,138 d=2268,138
X142 a_18625_4938# a_17425_5473# a_18625_5265# VGND sky130_fd_pr__nfet_01v8 ad=0.09975 pd=0.895 as=0.0693 ps=0.75 w=0.42 l=0.15
**devattr s=2772,150 d=3990,179
X143 VGND a_4503_16339# a_4837_16089# VGND sky130_fd_pr__nfet_01v8 ad=0.12573 pd=1.30744 as=0.25025 ps=1.42 w=0.65 l=0.15
**devattr s=10010,284 d=8320,388
X144 a_8337_1793# a_7221_1787# VDPWR VDPWR sky130_fd_pr__pfet_01v8_hvt ad=0.05932 pd=0.7025 as=0.08418 ps=0.79979 w=0.42 l=0.15
**devattr s=2268,138 d=2268,138
X145 VGND VGND a_7126_5409# VGND sky130_fd_pr__nfet_01v8 ad=0.08124 pd=0.84481 as=0.063 ps=0.72 w=0.42 l=0.15
**devattr s=2520,144 d=4094,199
X146 VDPWR VDPWR a_10525_5471# VDPWR sky130_fd_pr__pfet_01v8_hvt ad=0.08418 pd=0.79979 as=0.05932 ps=0.7025 w=0.42 l=0.15
**devattr s=2268,138 d=4368,272
X147 a_14825_4547# a_13709_4553# VDPWR VDPWR sky130_fd_pr__pfet_01v8_hvt ad=0.05932 pd=0.7025 as=0.08418 ps=0.79979 w=0.42 l=0.15
**devattr s=2268,138 d=2268,138
X148 VDPWR sky130_fd_sc_hd__inv_16_0.A uo_out[0] VDPWR sky130_fd_pr__pfet_01v8_hvt ad=0.20043 pd=1.90427 as=0.135 ps=1.27 w=1 l=0.15
**devattr s=5400,254 d=5400,254
X149 a_18663_26922# a_18663_27017# VGND VGND sky130_fd_pr__nfet_01v8 ad=0.1092 pd=1.36 as=0.08124 ps=0.84481 w=0.42 l=0.15
**devattr s=2268,138 d=4368,272
X150 VGND a_18667_25299# a_19059_25272# VGND sky130_fd_pr__nfet_01v8 ad=0.08124 pd=0.84481 as=0.07108 ps=0.80231 w=0.42 l=0.15
**devattr s=2640,149 d=4368,272
X151 a_8377_5305# a_7315_5043# a_8794_5415# VGND sky130_fd_pr__nfet_01v8 ad=0.0567 pd=0.69 as=0.0742 ps=0.91333 w=0.42 l=0.15
**devattr s=2268,138 d=2268,138
X152 VDPWR VDPWR a_9503_10581# VDPWR sky130_fd_pr__pfet_01v8_hvt ad=0.08418 pd=0.79979 as=0.0567 ps=0.69 w=0.42 l=0.15
**devattr s=2268,138 d=6662,278
X153 VDPWR a_8038_5023# a_7986_5049# VDPWR sky130_fd_pr__pfet_01v8_hvt ad=0.20043 pd=1.90427 as=0.26 ps=2.52 w=1 l=0.15
**devattr s=10400,504 d=5914,269
X154 sky130_fd_sc_hd__inv_16_0.A sky130_fd_sc_hd__inv_12_0.A VGND VGND sky130_fd_pr__nfet_01v8 ad=0.08775 pd=0.92 as=0.12573 ps=1.30744 w=0.65 l=0.15
**devattr s=6760,364 d=3510,184
X155 a_11888_1767# a_11175_1793# a_12113_2159# VGND sky130_fd_pr__nfet_01v8 ad=0.0693 pd=0.75 as=0.0441 ps=0.63 w=0.42 l=0.15
**devattr s=1764,126 d=2772,150
X156 VGND sky130_fd_sc_hd__inv_16_0.A uo_out[0] VGND sky130_fd_pr__nfet_01v8 ad=0.12573 pd=1.30744 as=0.08775 ps=0.92 w=0.65 l=0.15
**devattr s=3510,184 d=3510,184
X157 VGND a_9556_17271# a_23511_14335# VGND sky130_fd_pr__nfet_01v8 ad=0.08124 pd=0.84481 as=0.1092 ps=1.36 w=0.42 l=0.15
**devattr s=4368,272 d=2268,138
X158 VGND a_3990_1761# a_3938_1787# VGND sky130_fd_pr__nfet_01v8 ad=0.12573 pd=1.30744 as=0.169 ps=1.82 w=0.65 l=0.15
**devattr s=6760,364 d=4094,199
X159 a_9371_13111# VDPWR VGND VGND sky130_fd_pr__nfet_01v8 ad=0.08775 pd=0.92 as=0.12573 ps=1.30744 w=0.65 l=0.15
**devattr s=6760,364 d=3510,184
X160 VDPWR VDPWR a_6698_1787# VDPWR sky130_fd_pr__pfet_01v8_hvt ad=0.08418 pd=0.79979 as=0.0742 ps=0.91333 w=0.42 l=0.15
**devattr s=4368,272 d=2268,138
X161 a_18689_26867# sky130_fd_sc_hd__dfxbp_1_7.Q_N VGND VGND sky130_fd_pr__nfet_01v8 ad=0.08755 pd=0.89385 as=0.08124 ps=0.84481 w=0.42 l=0.15
**devattr s=4368,272 d=3252,166
X162 a_6805_15235# a_4847_14525# a_6717_15235# VGND sky130_fd_pr__nfet_01v8 ad=0.0798 pd=0.8 as=0.0609 ps=0.71 w=0.42 l=0.15
**devattr s=2436,142 d=3192,160
X163 a_9705_12861# VDPWR a_9621_12861# VGND sky130_fd_pr__nfet_01v8 ad=0.25025 pd=1.42 as=0.08775 ps=0.92 w=0.65 l=0.15
**devattr s=3510,184 d=10010,284
X164 VGND VGND a_13520_4919# VGND sky130_fd_pr__nfet_01v8 ad=0.08124 pd=0.84481 as=0.063 ps=0.72 w=0.42 l=0.15
**devattr s=2520,144 d=4094,199
X165 VDPWR a_8729_23143# a_9160_23197# VDPWR sky130_fd_pr__pfet_01v8_hvt ad=0.12828 pd=1.21873 as=0.1664 ps=1.8 w=0.64 l=0.15
**devattr s=6656,360 d=6160,267
X166 sky130_fd_sc_hd__dfxbp_1_2.CLK a_10975_23147# VGND VGND sky130_fd_pr__nfet_01v8 ad=0.169 pd=1.82 as=0.12573 ps=1.30744 w=0.65 l=0.15
**devattr s=3510,184 d=6760,364
X167 VGND a_15239_23241# a_15407_23143# VGND sky130_fd_pr__nfet_01v8 ad=0.12573 pd=1.30744 as=0.169 ps=1.82 w=0.65 l=0.15
**devattr s=6760,364 d=3510,184
X168 VDPWR VGND a_10289_1793# VDPWR sky130_fd_pr__pfet_01v8_hvt ad=0.08418 pd=0.79979 as=0.05932 ps=0.7025 w=0.42 l=0.15
**devattr s=2478,143 d=2268,138
X169 a_8167_5049# VGND VDPWR VDPWR sky130_fd_pr__pfet_01v8_hvt ad=0.0693 pd=0.75 as=0.08418 ps=0.79979 w=0.42 l=0.15
**devattr s=5914,269 d=2772,150
X170 a_1920_1765# a_2187_1765# a_2145_2157# VGND sky130_fd_pr__nfet_01v8 ad=0.0693 pd=0.75 as=0.0441 ps=0.63 w=0.42 l=0.15
**devattr s=1764,126 d=2772,150
X171 a_5269_1787# a_4329_2043# VGND VGND sky130_fd_pr__nfet_01v8 ad=0.169 pd=1.82 as=0.12573 ps=1.30744 w=0.65 l=0.15
**devattr s=4094,199 d=6760,364
X172 sky130_fd_sc_hd__dfxbp_1_0.Q_N a_9160_23197# VGND VGND sky130_fd_pr__nfet_01v8 ad=0.169 pd=1.82 as=0.12573 ps=1.30744 w=0.65 l=0.15
**devattr s=3880,195 d=6760,364
X173 a_15323_23241# a_14541_22875# a_15239_23241# VDPWR sky130_fd_pr__pfet_01v8_hvt ad=0.0882 pd=0.84 as=0.0567 ps=0.69 w=0.42 l=0.15
**devattr s=2268,138 d=3528,168
X174 VDPWR VDPWR a_13186_4553# VDPWR sky130_fd_pr__pfet_01v8_hvt ad=0.08418 pd=0.79979 as=0.0742 ps=0.91333 w=0.42 l=0.15
**devattr s=4368,272 d=2268,138
X175 a_10297_22879# sky130_fd_sc_hd__dfxbp_1_1.Q_N VDPWR VDPWR sky130_fd_pr__pfet_01v8_hvt ad=0.05775 pd=0.695 as=0.08418 ps=0.79979 w=0.42 l=0.15
**devattr s=4368,272 d=2310,139
X176 a_16486_16197# a_15641_17149# VDPWR VDPWR sky130_fd_pr__pfet_01v8_hvt ad=0.26 pd=2.52 as=0.20043 ps=1.90427 w=1 l=0.15
**devattr s=10400,504 d=10400,504
X177 a_23677_14701# ui_in[0] a_23761_14335# VDPWR sky130_fd_pr__pfet_01v8_hvt ad=0.10855 pd=1.36 as=0.0742 ps=0.91333 w=0.42 l=0.15
**devattr s=2268,138 d=4316,272
X178 a_4905_12113# a_4627_12141# VDPWR VDPWR sky130_fd_pr__pfet_01v8_hvt ad=0.475 pd=2.95 as=0.20043 ps=1.90427 w=1 l=0.15
**devattr s=6662,278 d=19000,590
X179 a_12823_4553# a_11439_4597# VDPWR VDPWR sky130_fd_pr__pfet_01v8_hvt ad=0.05932 pd=0.7025 as=0.08418 ps=0.79979 w=0.42 l=0.15
**devattr s=2268,138 d=2268,138
X180 VGND a_18663_27756# a_18663_27545# VGND sky130_fd_pr__nfet_01v8 ad=0.12573 pd=1.30744 as=0.169 ps=1.82 w=0.65 l=0.15
**devattr s=6760,364 d=3510,184
X181 a_4915_10549# a_4637_10577# VGND VGND sky130_fd_pr__nfet_01v8 ad=0.182 pd=1.86 as=0.12573 ps=1.30744 w=0.65 l=0.15
**devattr s=4472,208 d=7280,372
X182 VGND a_18663_27545# a_18663_28125# VGND sky130_fd_pr__nfet_01v8 ad=0.08124 pd=0.84481 as=0.1092 ps=1.36 w=0.42 l=0.15
**devattr s=4368,272 d=3880,195
X183 a_6087_14735# a_5809_14763# VGND VGND sky130_fd_pr__nfet_01v8 ad=0.182 pd=1.86 as=0.12573 ps=1.30744 w=0.65 l=0.15
**devattr s=4472,208 d=7280,372
X184 a_12793_14007# a_11147_11911# a_12697_14007# VDPWR sky130_fd_pr__pfet_01v8_hvt ad=0.0441 pd=0.63 as=0.0693 ps=0.75 w=0.42 l=0.15
**devattr s=2772,150 d=1764,126
X185 VGND VDPWR a_2313_2157# VGND sky130_fd_pr__nfet_01v8 ad=0.08124 pd=0.84481 as=0.05932 ps=0.7025 w=0.42 l=0.15
**devattr s=2268,138 d=4368,272
X186 a_17521_23241# a_16823_22875# a_17264_22987# VGND sky130_fd_pr__special_nfet_01v8 ad=0.0684 pd=0.74 as=0.07121 ps=0.7164 w=0.36 l=0.15
**devattr s=3956,199 d=2736,148