* NGSPICE file created from tt_um_ohmy90_adders.ext - technology: sky130A

.subckt sky130_fd_sc_hd__inv_1 A VGND VNB VPB VPWR Y
X0 Y A VGND VNB sky130_fd_pr__nfet_01v8 ad=0.169 pd=1.82 as=0.169 ps=1.82 w=0.65 l=0.15
**devattr s=6760,364 d=6760,364
X1 Y A VPWR VPB sky130_fd_pr__pfet_01v8_hvt ad=0.26 pd=2.52 as=0.26 ps=2.52 w=1 l=0.15
**devattr s=10400,504 d=10400,504
C0 VPWR VPB 0.05448f
C1 A VPB 0.04506f
C2 A VPWR 0.03703f
C3 Y VPB 0.01774f
C4 Y VPWR 0.12758f
C5 Y A 0.0476f
C6 VGND VPB 0.00948f
C7 VGND VPWR 0.03382f
C8 VGND A 0.04004f
C9 Y VGND 0.09984f
C10 VGND VNB 0.25113f
C11 Y VNB 0.0961f
C12 VPWR VNB 0.21892f
C13 A VNB 0.16664f
C14 VPB VNB 0.33898f
.ends

.subckt sky130_fd_sc_hd__mux4_1 A0 A1 A2 A3 S0 S1 VGND VNB VPB VPWR X a_1290_413#
+ a_757_363# a_1478_413# a_277_47# a_750_97# a_27_413# a_923_363# a_193_47# a_834_97#
+ a_247_21# a_668_97# a_193_413# a_27_47#
X0 a_277_47# a_247_21# a_27_413# VPB sky130_fd_pr__pfet_01v8_hvt ad=0.0742 pd=0.91333 as=0.1092 ps=1.36 w=0.42 l=0.15
**devattr s=4368,272 d=2268,138
X1 VGND S0 a_247_21# VNB sky130_fd_pr__nfet_01v8 ad=0.08138 pd=0.96719 as=0.1092 ps=1.36 w=0.42 l=0.15
**devattr s=4368,272 d=4368,272
X2 a_834_97# a_247_21# a_750_97# VNB sky130_fd_pr__nfet_01v8 ad=0.10858 pd=1.36 as=0.0742 ps=0.91333 w=0.42 l=0.15
**devattr s=2268,138 d=4318,272
X3 VGND A3 a_668_97# VNB sky130_fd_pr__nfet_01v8 ad=0.08138 pd=0.96719 as=0.10855 ps=1.36 w=0.42 l=0.15
**devattr s=4316,272 d=2268,138
X4 a_1290_413# S1 VPWR VPB sky130_fd_pr__pfet_01v8_hvt ad=0.1092 pd=1.36 as=0.08399 ps=0.95455 w=0.42 l=0.15
**devattr s=4368,272 d=4368,272
X5 a_834_97# A2 VGND VNB sky130_fd_pr__nfet_01v8 ad=0.10858 pd=1.36 as=0.08138 ps=0.96719 w=0.42 l=0.15
**devattr s=2268,138 d=4368,272
X6 a_750_97# S0 a_757_363# VPB sky130_fd_pr__pfet_01v8_hvt ad=0.1274 pd=1.16667 as=0.10855 ps=1.36 w=0.42 l=0.15
**devattr s=4316,272 d=2268,138
X7 a_27_47# S0 a_277_47# VNB sky130_fd_pr__nfet_01v8 ad=0.1092 pd=1.36 as=0.09322 ps=1.07 w=0.42 l=0.15
**devattr s=3409,185 d=4368,272
X8 X a_1478_413# VGND VNB sky130_fd_pr__nfet_01v8 ad=0.169 pd=1.82 as=0.12594 ps=1.49685 w=0.65 l=0.15
**devattr s=6760,364 d=6760,364
X9 VPWR A1 a_27_413# VPB sky130_fd_pr__pfet_01v8_hvt ad=0.08399 pd=0.95455 as=0.1092 ps=1.36 w=0.42 l=0.15
**devattr s=4368,272 d=2268,138
X10 VPWR S0 a_247_21# VPB sky130_fd_pr__pfet_01v8_hvt ad=0.08399 pd=0.95455 as=0.1083 ps=1.36 w=0.42 l=0.15
**devattr s=4332,272 d=4316,272
X11 X a_1478_413# VPWR VPB sky130_fd_pr__pfet_01v8_hvt ad=0.26 pd=2.52 as=0.19997 ps=2.27273 w=1 l=0.15
**devattr s=10400,504 d=10400,504
X12 a_193_47# A0 VGND VNB sky130_fd_pr__nfet_01v8 ad=0.0567 pd=0.69 as=0.08138 ps=0.96719 w=0.42 l=0.15
**devattr s=2268,138 d=2268,138
X13 a_750_97# a_1290_413# a_1478_413# VPB sky130_fd_pr__pfet_01v8_hvt ad=0.1274 pd=1.16667 as=0.09209 ps=0.99 w=0.42 l=0.15
**devattr s=3683,198 d=10752,424
X14 a_1478_413# S1 a_277_47# VPB sky130_fd_pr__pfet_01v8_hvt ad=0.09209 pd=0.99 as=0.0742 ps=0.91333 w=0.42 l=0.15
**devattr s=4368,272 d=3683,198
X15 a_1290_413# S1 VGND VNB sky130_fd_pr__nfet_01v8 ad=0.1092 pd=1.36 as=0.08138 ps=0.96719 w=0.42 l=0.15
**devattr s=4368,272 d=4368,272
X16 a_277_47# a_247_21# a_193_47# VNB sky130_fd_pr__nfet_01v8 ad=0.09322 pd=1.07 as=0.0567 ps=0.69 w=0.42 l=0.15
**devattr s=2268,138 d=3409,185
X17 a_750_97# S0 a_668_97# VNB sky130_fd_pr__nfet_01v8 ad=0.0742 pd=0.91333 as=0.10855 ps=1.36 w=0.42 l=0.15
**devattr s=4368,272 d=2268,138
X18 a_923_363# a_247_21# a_750_97# VPB sky130_fd_pr__pfet_01v8_hvt ad=0.09013 pd=0.995 as=0.1274 ps=1.16667 w=0.42 l=0.15
**devattr s=2268,138 d=3605,199
X19 a_757_363# A2 VPWR VPB sky130_fd_pr__pfet_01v8_hvt ad=0.10855 pd=1.36 as=0.08399 ps=0.95455 w=0.42 l=0.15
**devattr s=2268,138 d=4368,272
X20 VPWR A3 a_923_363# VPB sky130_fd_pr__pfet_01v8_hvt ad=0.08399 pd=0.95455 as=0.09013 ps=0.995 w=0.42 l=0.15
**devattr s=3605,199 d=2268,138
X21 a_277_47# a_1290_413# a_1478_413# VNB sky130_fd_pr__nfet_01v8 ad=0.09322 pd=1.07 as=0.15102 ps=1.285 w=0.42 l=0.15
**devattr s=6041,257 d=4368,272
X22 a_193_413# A0 VPWR VPB sky130_fd_pr__pfet_01v8_hvt ad=0.10855 pd=1.36 as=0.08399 ps=0.95455 w=0.42 l=0.15
**devattr s=2268,138 d=4368,272
X23 a_193_413# S0 a_277_47# VPB sky130_fd_pr__pfet_01v8_hvt ad=0.10855 pd=1.36 as=0.0742 ps=0.91333 w=0.42 l=0.15
**devattr s=2268,138 d=4316,272
X24 VGND A1 a_27_47# VNB sky130_fd_pr__nfet_01v8 ad=0.08138 pd=0.96719 as=0.1092 ps=1.36 w=0.42 l=0.15
**devattr s=4368,272 d=2268,138
X25 a_1478_413# S1 a_750_97# VNB sky130_fd_pr__nfet_01v8 ad=0.15102 pd=1.285 as=0.0742 ps=0.91333 w=0.42 l=0.15
**devattr s=4368,272 d=6041,257
C0 a_247_21# a_1290_413# 0.00705f
C1 a_834_97# S0 0
C2 a_247_21# a_1478_413# 0
C3 X VGND 0.05939f
C4 A0 S0 0.00186f
C5 a_247_21# a_834_97# 0.02707f
C6 a_277_47# X 0
C7 X VPWR 0.05937f
C8 VPB X 0.01181f
C9 a_247_21# A0 0.07359f
C10 a_27_47# S0 0.01792f
C11 a_923_363# a_1290_413# 0
C12 a_750_97# S0 0.09449f
C13 S1 A3 0
C14 a_247_21# a_27_47# 0.0457f
C15 a_247_21# a_750_97# 0.12371f
C16 a_923_363# a_834_97# 0
C17 VGND S0 0.06675f
C18 a_193_413# A1 0
C19 a_277_47# S0 0.03381f
C20 VPWR S0 0.0687f
C21 A3 a_1290_413# 0
C22 VPB S0 0.31074f
C23 a_750_97# a_923_363# 0.00222f
C24 a_247_21# VGND 0.09412f
C25 a_247_21# a_277_47# 0.35203f
C26 a_247_21# VPWR 0.15063f
C27 a_247_21# VPB 0.22297f
C28 a_247_21# A2 0.00145f
C29 A3 a_834_97# 0.03609f
C30 a_757_363# S0 0.03305f
C31 S0 a_27_413# 0
C32 a_247_21# a_757_363# 0.02645f
C33 a_247_21# a_27_413# 0.00549f
C34 a_27_47# A3 0
C35 a_923_363# VPWR 0.00225f
C36 a_1290_413# a_668_97# 0
C37 a_750_97# A3 0.03406f
C38 A0 A1 0.14123f
C39 a_27_47# A1 0.03909f
C40 a_834_97# a_668_97# 0.05583f
C41 a_923_363# a_757_363# 0.00988f
C42 a_750_97# A1 0
C43 A3 VGND 0.01161f
C44 a_247_21# X 0
C45 A3 a_277_47# 0.0121f
C46 A3 VPWR 0.012f
C47 A3 VPB 0.07252f
C48 a_750_97# a_668_97# 0.04662f
C49 A3 A2 0.15492f
C50 S1 a_1290_413# 0.15612f
C51 VGND A1 0.01705f
C52 a_277_47# A1 0.00101f
C53 VPWR A1 0.01712f
C54 S1 a_1478_413# 0.00517f
C55 VPB A1 0.0741f
C56 A3 a_757_363# 0.03224f
C57 S1 a_834_97# 0.00189f
C58 a_193_47# A0 0
C59 a_668_97# VGND 0.22352f
C60 a_277_47# a_668_97# 0.02235f
C61 VPWR a_668_97# 0.00181f
C62 VPB a_668_97# 0.00146f
C63 a_27_47# a_193_47# 0.00648f
C64 a_247_21# S0 0.39319f
C65 a_27_413# A1 0.0413f
C66 A0 a_193_413# 0.00145f
C67 S1 a_750_97# 0.06323f
C68 a_1478_413# a_1290_413# 0.10432f
C69 a_834_97# a_1290_413# 0.01242f
C70 a_750_97# a_193_413# 0
C71 a_193_47# VGND 0.00175f
C72 a_193_47# a_277_47# 0
C73 S1 VGND 0.04087f
C74 a_193_47# VPWR 0
C75 S1 a_277_47# 0.06116f
C76 a_750_97# a_1290_413# 0.17579f
C77 S1 VPWR 0.0409f
C78 S1 VPB 0.21534f
C79 a_193_413# VGND 0
C80 S1 A2 0.06853f
C81 a_277_47# a_193_413# 0.0594f
C82 a_750_97# a_1478_413# 0.1456f
C83 VPWR a_193_413# 0.18442f
C84 VPB a_193_413# 0.01733f
C85 a_750_97# a_834_97# 0.0296f
C86 a_27_47# A0 0.04574f
C87 S1 a_757_363# 0.00151f
C88 A3 S0 0.00317f
C89 a_750_97# A0 0
C90 a_1290_413# VGND 0.06373f
C91 a_277_47# a_1290_413# 0.33858f
C92 a_247_21# A3 0.07395f
C93 VPWR a_1290_413# 0.0823f
C94 a_193_413# a_27_413# 0.05551f
C95 a_1478_413# VGND 0.18885f
C96 VPB a_1290_413# 0.14223f
C97 A2 a_1290_413# 0.00165f
C98 a_277_47# a_1478_413# 0.09435f
C99 VPWR a_1478_413# 0.21151f
C100 a_834_97# VGND 0.09477f
C101 VPB a_1478_413# 0.07712f
C102 a_277_47# a_834_97# 0.04391f
C103 a_247_21# A1 0
C104 VPWR a_834_97# 0
C105 VPB a_834_97# 0.00426f
C106 A0 VGND 0.01709f
C107 a_757_363# a_1290_413# 0.0098f
C108 A2 a_834_97# 0.04394f
C109 a_277_47# A0 0.05427f
C110 VPWR A0 0.01747f
C111 a_668_97# S0 0.03f
C112 A3 a_923_363# 0
C113 VPB A0 0.08019f
C114 S1 X 0
C115 a_27_47# VGND 0.22952f
C116 a_27_47# a_277_47# 0.08551f
C117 a_750_97# VGND 0.05676f
C118 a_27_47# VPWR 0.0018f
C119 a_247_21# a_668_97# 0.01881f
C120 a_757_363# a_834_97# 0.01352f
C121 a_27_47# VPB 0.00324f
C122 a_750_97# a_277_47# 0.26678f
C123 a_750_97# VPWR 0.22609f
C124 a_750_97# VPB 0.05933f
C125 a_750_97# A2 0.01619f
C126 A0 a_27_413# 0.04892f
C127 a_27_47# a_27_413# 0.00987f
C128 a_750_97# a_757_363# 0.13413f
C129 X a_1290_413# 0.00208f
C130 a_750_97# a_27_413# 0
C131 a_277_47# VGND 0.41112f
C132 VPWR VGND 0.05896f
C133 VPB VGND 0.01387f
C134 X a_1478_413# 0.12698f
C135 a_277_47# VPWR 0.05706f
C136 A2 VGND 0.0122f
C137 a_277_47# VPB 0.03677f
C138 VPB VPWR 0.22689f
C139 a_277_47# A2 0.01375f
C140 A2 VPWR 0.0129f
C141 A2 VPB 0.07872f
C142 a_193_413# S0 0.01772f
C143 a_247_21# S1 0
C144 a_277_47# a_757_363# 0
C145 a_247_21# a_193_413# 0.09132f
C146 VGND a_27_413# 0.00189f
C147 a_757_363# VPWR 0.24812f
C148 VPB a_757_363# 0.0237f
C149 a_277_47# a_27_413# 0.05408f
C150 VPWR a_27_413# 0.08385f
C151 A2 a_757_363# 0.03541f
C152 A3 a_668_97# 0.0033f
C153 VPB a_27_413# 0.02285f
C154 a_750_97# X 0
C155 VGND VNB 1.07507f
C156 X VNB 0.09236f
C157 S1 VNB 0.32062f
C158 A2 VNB 0.11249f
C159 A3 VNB 0.11926f
C160 S0 VNB 0.46486f
C161 VPWR VNB 0.86887f
C162 A0 VNB 0.10257f
C163 A1 VNB 0.17585f
C164 VPB VNB 1.9337f
C165 a_834_97# VNB 0.02499f
C166 a_668_97# VNB 0.02039f
C167 a_27_47# VNB 0.04207f
C168 a_1478_413# VNB 0.16413f
C169 a_1290_413# VNB 0.2199f
C170 a_750_97# VNB 0.04192f
C171 a_757_363# VNB 0.00666f
C172 a_277_47# VNB 0.07984f
C173 a_247_21# VNB 0.34344f
C174 a_193_413# VNB 0.00373f
C175 a_27_413# VNB 0.02865f
.ends

.subckt sky130_fd_sc_hd__xor2_1 A B VGND VNB VPB VPWR X a_117_297# a_285_297# a_285_47#
+ a_35_297#
X0 X a_35_297# a_285_297# VPB sky130_fd_pr__pfet_01v8_hvt ad=0.3 pd=2.6 as=0.17667 ps=1.68667 w=1 l=0.15
**devattr s=10400,504 d=12000,520
X1 X B a_285_47# VNB sky130_fd_pr__nfet_01v8 ad=0.25025 pd=1.42 as=0.08775 ps=0.92 w=0.65 l=0.15
**devattr s=3510,184 d=10010,284
X2 a_35_297# B VGND VNB sky130_fd_pr__nfet_01v8 ad=0.08775 pd=0.92 as=0.13813 ps=1.4 w=0.65 l=0.15
**devattr s=6760,364 d=3510,184
X3 a_117_297# B a_35_297# VPB sky130_fd_pr__pfet_01v8_hvt ad=0.135 pd=1.27 as=0.26 ps=2.52 w=1 l=0.15
**devattr s=10400,504 d=5400,254
X4 VPWR B a_285_297# VPB sky130_fd_pr__pfet_01v8_hvt ad=0.17667 pd=1.68667 as=0.17667 ps=1.68667 w=1 l=0.15
**devattr s=5400,254 d=10400,504
X5 VGND A a_35_297# VNB sky130_fd_pr__nfet_01v8 ad=0.13813 pd=1.4 as=0.08775 ps=0.92 w=0.65 l=0.15
**devattr s=3510,184 d=3510,184
X6 VGND a_35_297# X VNB sky130_fd_pr__nfet_01v8 ad=0.13813 pd=1.4 as=0.25025 ps=1.42 w=0.65 l=0.15
**devattr s=10010,284 d=8320,388
X7 a_285_297# A VPWR VPB sky130_fd_pr__pfet_01v8_hvt ad=0.17667 pd=1.68667 as=0.17667 ps=1.68667 w=1 l=0.15
**devattr s=5400,254 d=5400,254
X8 VPWR A a_117_297# VPB sky130_fd_pr__pfet_01v8_hvt ad=0.17667 pd=1.68667 as=0.135 ps=1.27 w=1 l=0.15
**devattr s=5400,254 d=5400,254
X9 a_285_47# A VGND VNB sky130_fd_pr__nfet_01v8 ad=0.08775 pd=0.92 as=0.13813 ps=1.4 w=0.65 l=0.15
**devattr s=3510,184 d=3510,184
C0 VPB B 0.06969f
C1 VPB a_35_297# 0.06993f
C2 VGND A 0.03254f
C3 a_285_297# X 0.07125f
C4 VPB VPWR 0.06891f
C5 B a_117_297# 0.00777f
C6 a_35_297# a_117_297# 0.00641f
C7 VGND B 0.03045f
C8 VGND a_35_297# 0.17666f
C9 VGND a_285_47# 0.00552f
C10 a_117_297# VPWR 0.00852f
C11 a_285_297# A 0.00749f
C12 VGND VPWR 0.06426f
C13 a_285_297# B 0.05532f
C14 VGND VPB 0.00696f
C15 a_285_297# a_35_297# 0.02504f
C16 a_285_297# VPWR 0.24631f
C17 VGND a_117_297# 0.00177f
C18 A X 0.00166f
C19 a_285_297# VPB 0.01327f
C20 X B 0.01488f
C21 a_35_297# X 0.166f
C22 a_285_47# X 0.00206f
C23 VGND a_285_297# 0.00394f
C24 X VPWR 0.05365f
C25 A B 0.22134f
C26 a_35_297# A 0.06334f
C27 VPB X 0.01541f
C28 A VPWR 0.03484f
C29 a_35_297# B 0.203f
C30 a_285_47# B 0
C31 a_285_47# a_35_297# 0.00723f
C32 X a_117_297# 0
C33 VPB A 0.05101f
C34 VGND X 0.1729f
C35 B VPWR 0.07031f
C36 a_35_297# VPWR 0.09604f
C37 a_285_47# VPWR 0
C38 VGND VNB 0.43488f
C39 X VNB 0.06491f
C40 VPWR VNB 0.33278f
C41 A VNB 0.16672f
C42 B VNB 0.21337f
C43 VPB VNB 0.69336f
C44 a_285_297# VNB 0.00137f
C45 a_35_297# VNB 0.25457f
.ends

.subckt sky130_fd_sc_hd__and2_1 A B VGND VNB VPB VPWR X a_145_75# a_59_75#
X0 VPWR B a_59_75# VPB sky130_fd_pr__pfet_01v8_hvt ad=0.10288 pd=0.95413 as=0.0567 ps=0.69 w=0.42 l=0.15
**devattr s=2268,138 d=6662,278
X1 X a_59_75# VPWR VPB sky130_fd_pr__pfet_01v8_hvt ad=0.475 pd=2.95 as=0.24495 ps=2.27174 w=1 l=0.15
**devattr s=6662,278 d=19000,590
X2 VGND B a_145_75# VNB sky130_fd_pr__nfet_01v8 ad=0.08777 pd=0.81645 as=0.0567 ps=0.69 w=0.42 l=0.15
**devattr s=2268,138 d=4472,208
X3 a_59_75# A VPWR VPB sky130_fd_pr__pfet_01v8_hvt ad=0.0567 pd=0.69 as=0.10288 ps=0.95413 w=0.42 l=0.15
**devattr s=4704,280 d=2268,138
X4 X a_59_75# VGND VNB sky130_fd_pr__nfet_01v8 ad=0.182 pd=1.86 as=0.13583 ps=1.26355 w=0.65 l=0.15
**devattr s=4472,208 d=7280,372
X5 a_145_75# A a_59_75# VNB sky130_fd_pr__nfet_01v8 ad=0.0567 pd=0.69 as=0.1176 ps=1.4 w=0.42 l=0.15
**devattr s=4704,280 d=2268,138
C0 X a_59_75# 0.10872f
C1 a_145_75# VGND 0.00468f
C2 B X 0.00276f
C3 VPWR a_145_75# 0
C4 a_59_75# VGND 0.11564f
C5 B VGND 0.01146f
C6 VPWR a_59_75# 0.15028f
C7 VPWR B 0.01175f
C8 A VPB 0.08057f
C9 X VGND 0.09933f
C10 VPWR X 0.11122f
C11 VPWR VGND 0.04608f
C12 A a_59_75# 0.08088f
C13 A B 0.09709f
C14 VPB a_59_75# 0.05631f
C15 B VPB 0.06287f
C16 a_145_75# a_59_75# 0.00658f
C17 A X 0
C18 X VPB 0.01265f
C19 A VGND 0.01472f
C20 B a_59_75# 0.14331f
C21 VPWR A 0.03623f
C22 VPB VGND 0.008f
C23 X a_145_75# 0
C24 VPWR VPB 0.07293f
C25 VGND VNB 0.3114f
C26 X VNB 0.10018f
C27 B VNB 0.11287f
C28 A VNB 0.17379f
C29 VPWR VNB 0.27345f
C30 VPB VNB 0.51617f
C31 a_59_75# VNB 0.17706f
.ends

.subckt sky130_fd_sc_hd__or2_1 A B VGND VNB VPB VPWR X a_150_297# a_68_297#
X0 VGND A a_68_297# VNB sky130_fd_pr__nfet_01v8 ad=0.0873 pd=0.93866 as=0.0567 ps=0.69 w=0.42 l=0.15
**devattr s=2268,138 d=4010,197
X1 a_68_297# B VGND VNB sky130_fd_pr__nfet_01v8 ad=0.0567 pd=0.69 as=0.0873 ps=0.93866 w=0.42 l=0.15
**devattr s=4368,272 d=2268,138
X2 X a_68_297# VGND VNB sky130_fd_pr__nfet_01v8 ad=0.169 pd=1.82 as=0.1351 ps=1.45268 w=0.65 l=0.15
**devattr s=4010,197 d=6760,364
X3 VPWR A a_150_297# VPB sky130_fd_pr__pfet_01v8_hvt ad=0.08622 pd=0.78972 as=0.0441 ps=0.63 w=0.42 l=0.15
**devattr s=1764,126 d=5830,267
X4 X a_68_297# VPWR VPB sky130_fd_pr__pfet_01v8_hvt ad=0.34 pd=2.68 as=0.20528 ps=1.88028 w=1 l=0.15
**devattr s=5830,267 d=13600,536
X5 a_150_297# B a_68_297# VPB sky130_fd_pr__pfet_01v8_hvt ad=0.0441 pd=0.63 as=0.1092 ps=1.36 w=0.42 l=0.15
**devattr s=4368,272 d=1764,126
C0 VPB VGND 0.0112f
C1 A VPB 0.03097f
C2 B X 0
C3 VGND VPWR 0.04645f
C4 a_68_297# VGND 0.11796f
C5 A VPWR 0.00846f
C6 a_68_297# A 0.15786f
C7 a_150_297# X 0
C8 VPB VPWR 0.08053f
C9 B VGND 0.04365f
C10 a_68_297# VPB 0.06114f
C11 B A 0.07509f
C12 a_68_297# VPWR 0.08898f
C13 B VPB 0.0462f
C14 a_150_297# VGND 0
C15 X VGND 0.11395f
C16 A X 0.01305f
C17 B VPWR 0.00855f
C18 a_68_297# B 0.09843f
C19 VPB X 0.0209f
C20 a_150_297# VPWR 0.00193f
C21 A VGND 0.03465f
C22 a_68_297# a_150_297# 0.00477f
C23 X VPWR 0.12857f
C24 a_68_297# X 0.10534f
C25 VGND VNB 0.32043f
C26 X VNB 0.10095f
C27 A VNB 0.11072f
C28 B VNB 0.18272f
C29 VPWR VNB 0.26856f
C30 VPB VNB 0.51617f
C31 a_68_297# VNB 0.15387f
.ends

.subckt sky130_fd_sc_hd__and4_1 A B C D VGND VNB VPB VPWR X a_109_47# a_197_47# a_303_47#
+ a_27_47#
X0 a_27_47# C VPWR VPB sky130_fd_pr__pfet_01v8_hvt ad=0.06615 pd=0.735 as=0.1394 ps=0.98731 w=0.42 l=0.15
**devattr s=3108,158 d=2352,140
X1 a_197_47# B a_109_47# VNB sky130_fd_pr__nfet_01v8 ad=0.0798 pd=0.8 as=0.0609 ps=0.71 w=0.42 l=0.15
**devattr s=2436,142 d=3192,160
X2 X a_27_47# VPWR VPB sky130_fd_pr__pfet_01v8_hvt ad=0.26 pd=2.52 as=0.3319 ps=2.35075 w=1 l=0.15
**devattr s=12498,336 d=10400,504
X3 a_303_47# C a_197_47# VNB sky130_fd_pr__nfet_01v8 ad=0.0693 pd=0.75 as=0.0798 ps=0.8 w=0.42 l=0.15
**devattr s=3192,160 d=2772,150
X4 a_27_47# A VPWR VPB sky130_fd_pr__pfet_01v8_hvt ad=0.06615 pd=0.735 as=0.1394 ps=0.98731 w=0.42 l=0.15
**devattr s=4368,272 d=2940,154
X5 VPWR D a_27_47# VPB sky130_fd_pr__pfet_01v8_hvt ad=0.1394 pd=0.98731 as=0.06615 ps=0.735 w=0.42 l=0.15
**devattr s=2352,140 d=12498,336
X6 VGND D a_303_47# VNB sky130_fd_pr__nfet_01v8 ad=0.15409 pd=1.04411 as=0.0693 ps=0.75 w=0.42 l=0.15
**devattr s=2772,150 d=7851,266
X7 VPWR B a_27_47# VPB sky130_fd_pr__pfet_01v8_hvt ad=0.1394 pd=0.98731 as=0.06615 ps=0.735 w=0.42 l=0.15
**devattr s=2940,154 d=3108,158
X8 X a_27_47# VGND VNB sky130_fd_pr__nfet_01v8 ad=0.169 pd=1.82 as=0.23846 ps=1.61589 w=0.65 l=0.15
**devattr s=7851,266 d=6760,364
X9 a_109_47# A a_27_47# VNB sky130_fd_pr__nfet_01v8 ad=0.0609 pd=0.71 as=0.1092 ps=1.36 w=0.42 l=0.15
**devattr s=4368,272 d=2436,142
C0 X a_27_47# 0.07537f
C1 C VGND 0.04082f
C2 VPB a_27_47# 0.08205f
C3 VPWR B 0.02308f
C4 a_197_47# B 0.00623f
C5 C VPB 0.06088f
C6 B A 0.08391f
C7 a_109_47# VGND 0.00223f
C8 VPWR a_27_47# 0.32628f
C9 a_197_47# a_27_47# 0.00167f
C10 C VPWR 0.02103f
C11 C a_197_47# 0.00123f
C12 a_27_47# A 0.15343f
C13 D a_303_47# 0.00119f
C14 B a_27_47# 0.12972f
C15 C B 0.16061f
C16 a_109_47# VPWR 0
C17 D VGND 0.0898f
C18 D X 0.00746f
C19 VGND a_303_47# 0.00381f
C20 D VPB 0.07823f
C21 C a_27_47# 0.05159f
C22 X VGND 0.09025f
C23 a_109_47# B 0.00153f
C24 VPB VGND 0.00852f
C25 VPB X 0.01107f
C26 D VPWR 0.02073f
C27 VPWR a_303_47# 0
C28 a_109_47# a_27_47# 0.00578f
C29 C a_109_47# 0
C30 VPWR VGND 0.06618f
C31 a_197_47# VGND 0.00387f
C32 VPWR X 0.09451f
C33 VGND A 0.01512f
C34 VPWR VPB 0.07695f
C35 VPB A 0.09066f
C36 B VGND 0.04527f
C37 D a_27_47# 0.10658f
C38 C D 0.18016f
C39 a_197_47# VPWR 0
C40 a_303_47# a_27_47# 0.00119f
C41 B VPB 0.06433f
C42 C a_303_47# 0.00527f
C43 VPWR A 0.044f
C44 VGND a_27_47# 0.13176f
C45 VGND VNB 0.39291f
C46 X VNB 0.09332f
C47 VPWR VNB 0.33454f
C48 D VNB 0.13027f
C49 C VNB 0.10983f
C50 B VNB 0.11212f
C51 A VNB 0.22098f
C52 VPB VNB 0.69336f
C53 a_27_47# VNB 0.17489f
.ends

.subckt sky130_fd_sc_hd__or4_1 A B C D VGND VNB VPB VPWR X a_277_297# a_205_297# a_27_297#
+ a_109_297#
X0 a_27_297# B VGND VNB sky130_fd_pr__nfet_01v8 ad=0.063 pd=0.72 as=0.07685 ps=0.85082 w=0.42 l=0.15
**devattr s=2268,138 d=2268,138
X1 a_27_297# D VGND VNB sky130_fd_pr__nfet_01v8 ad=0.063 pd=0.72 as=0.07685 ps=0.85082 w=0.42 l=0.15
**devattr s=4368,272 d=2772,150
X2 a_277_297# B a_205_297# VPB sky130_fd_pr__pfet_01v8_hvt ad=0.0693 pd=0.75 as=0.0441 ps=0.63 w=0.42 l=0.15
**devattr s=1764,126 d=2772,150
X3 VPWR A a_277_297# VPB sky130_fd_pr__pfet_01v8_hvt ad=0.0877 pd=0.79268 as=0.0693 ps=0.75 w=0.42 l=0.15
**devattr s=2772,150 d=5930,268
X4 X a_27_297# VGND VNB sky130_fd_pr__nfet_01v8 ad=0.1755 pd=1.84 as=0.11894 ps=1.31674 w=0.65 l=0.15
**devattr s=4075,198 d=7020,368
X5 a_205_297# C a_109_297# VPB sky130_fd_pr__pfet_01v8_hvt ad=0.0441 pd=0.63 as=0.0693 ps=0.75 w=0.42 l=0.15
**devattr s=2772,150 d=1764,126
X6 X a_27_297# VPWR VPB sky130_fd_pr__pfet_01v8_hvt ad=0.27 pd=2.54 as=0.2088 ps=1.88732 w=1 l=0.15
**devattr s=5930,268 d=10800,508
X7 VGND C a_27_297# VNB sky130_fd_pr__nfet_01v8 ad=0.07685 pd=0.85082 as=0.063 ps=0.72 w=0.42 l=0.15
**devattr s=2772,150 d=2268,138
X8 a_109_297# D a_27_297# VPB sky130_fd_pr__pfet_01v8_hvt ad=0.0693 pd=0.75 as=0.1092 ps=1.36 w=0.42 l=0.15
**devattr s=4368,272 d=2772,150
X9 VGND A a_27_297# VNB sky130_fd_pr__nfet_01v8 ad=0.07685 pd=0.85082 as=0.063 ps=0.72 w=0.42 l=0.15
**devattr s=2268,138 d=4075,198
C0 VGND a_205_297# 0
C1 a_277_297# a_27_297# 0.00876f
C2 VPWR a_277_297# 0
C3 A a_277_297# 0
C4 VPB C 0.03382f
C5 VGND a_277_297# 0
C6 C B 0.09165f
C7 a_27_297# D 0.05404f
C8 VPWR D 0.00503f
C9 A D 0
C10 VGND D 0.05172f
C11 C a_109_297# 0.00356f
C12 VPB B 0.10612f
C13 C a_27_297# 0.15835f
C14 C VPWR 0.00723f
C15 C A 0.02804f
C16 C VGND 0.0191f
C17 C a_205_297# 0.00261f
C18 VPB X 0.01089f
C19 X B 0
C20 C a_277_297# 0
C21 VPB a_27_297# 0.05168f
C22 VPB VPWR 0.07497f
C23 VPB A 0.03298f
C24 B a_27_297# 0.15929f
C25 VPWR B 0.19276f
C26 VPB VGND 0.00796f
C27 A B 0.06391f
C28 C D 0.09543f
C29 VGND B 0.01587f
C30 a_109_297# a_27_297# 0.00695f
C31 VPWR a_109_297# 0
C32 X a_27_297# 0.0991f
C33 a_277_297# B 0
C34 X VPWR 0.08784f
C35 VGND a_109_297# 0
C36 X A 0.00133f
C37 X VGND 0.03541f
C38 VPB D 0.04052f
C39 VPWR a_27_297# 0.08397f
C40 A a_27_297# 0.16258f
C41 A VPWR 0.00769f
C42 B D 0.00287f
C43 VGND a_27_297# 0.23515f
C44 a_27_297# a_205_297# 0.00412f
C45 VPWR VGND 0.05464f
C46 A VGND 0.01596f
C47 VPWR a_205_297# 0
C48 X a_277_297# 0
C49 VGND VNB 0.36697f
C50 X VNB 0.08835f
C51 A VNB 0.10929f
C52 C VNB 0.10488f
C53 D VNB 0.17526f
C54 B VNB 0.11467f
C55 VPWR VNB 0.28998f
C56 VPB VNB 0.60476f
C57 a_27_297# VNB 0.16291f
.ends

.subckt sky130_fd_sc_hd__and3_1 A B C VGND VNB VPB VPWR X a_181_47# a_109_47# a_27_47#
X0 VPWR A a_27_47# VPB sky130_fd_pr__pfet_01v8_hvt ad=0.07394 pd=0.75265 as=0.0805 ps=0.94333 w=0.42 l=0.15
**devattr s=4368,272 d=2268,138
X1 VPWR C a_27_47# VPB sky130_fd_pr__pfet_01v8_hvt ad=0.07394 pd=0.75265 as=0.0805 ps=0.94333 w=0.42 l=0.15
**devattr s=2646,147 d=5689,267
X2 a_181_47# B a_109_47# VNB sky130_fd_pr__nfet_01v8 ad=0.0441 pd=0.63 as=0.0441 ps=0.63 w=0.42 l=0.15
**devattr s=1764,126 d=1764,126
X3 VGND C a_181_47# VNB sky130_fd_pr__nfet_01v8 ad=0.10335 pd=0.89495 as=0.0441 ps=0.63 w=0.42 l=0.15
**devattr s=1764,126 d=5266,228
X4 a_27_47# B VPWR VPB sky130_fd_pr__pfet_01v8_hvt ad=0.0805 pd=0.94333 as=0.07394 ps=0.75265 w=0.42 l=0.15
**devattr s=2268,138 d=2646,147
X5 X a_27_47# VPWR VPB sky130_fd_pr__pfet_01v8_hvt ad=0.26 pd=2.52 as=0.17604 ps=1.79204 w=1 l=0.15
**devattr s=5689,267 d=10400,504
X6 X a_27_47# VGND VNB sky130_fd_pr__nfet_01v8 ad=0.169 pd=1.82 as=0.15995 ps=1.38505 w=0.65 l=0.15
**devattr s=5266,228 d=6760,364
X7 a_109_47# A a_27_47# VNB sky130_fd_pr__nfet_01v8 ad=0.0441 pd=0.63 as=0.1092 ps=1.36 w=0.42 l=0.15
**devattr s=4368,272 d=1764,126
C0 X VPB 0.01208f
C1 VPWR A 0.01846f
C2 a_27_47# X 0.08704f
C3 A VGND 0.01538f
C4 C VPB 0.0347f
C5 a_27_47# C 0.1862f
C6 VPWR VPB 0.07946f
C7 a_27_47# a_181_47# 0.00401f
C8 a_27_47# VPWR 0.14545f
C9 VPB VGND 0.00604f
C10 B X 0.00111f
C11 a_27_47# VGND 0.13361f
C12 A VPB 0.0426f
C13 B C 0.07462f
C14 a_27_47# A 0.15687f
C15 B VPWR 0.12845f
C16 B VGND 0.00714f
C17 a_27_47# VPB 0.05008f
C18 B A 0.08692f
C19 a_109_47# VPWR 0
C20 a_109_47# VGND 0.00123f
C21 B VPB 0.08363f
C22 a_27_47# B 0.06246f
C23 X C 0.01492f
C24 a_109_47# A 0
C25 VPWR X 0.07662f
C26 X VGND 0.07078f
C27 a_181_47# C 0.00151f
C28 VPWR C 0.00464f
C29 a_27_47# a_109_47# 0.00517f
C30 VPWR a_181_47# 0
C31 C VGND 0.07031f
C32 a_181_47# VGND 0.00261f
C33 VPWR VGND 0.04751f
C34 VGND VNB 0.30013f
C35 X VNB 0.09228f
C36 C VNB 0.12026f
C37 A VNB 0.17412f
C38 VPWR VNB 0.27425f
C39 B VNB 0.10179f
C40 VPB VNB 0.51617f
C41 a_27_47# VNB 0.17719f
.ends

.subckt CLA VNB sky130_fd_sc_hd__and4_1_1/a_303_47# sky130_fd_sc_hd__and4_1_0/VPB
+ sky130_fd_sc_hd__xor2_1_0/VPB sky130_fd_sc_hd__and2_1_5/VPB a_187_n2185# sky130_fd_sc_hd__and4_1_0/a_27_47#
+ sky130_fd_sc_hd__or4_1_0/D sky130_fd_sc_hd__or2_1_0/a_150_297# sky130_fd_sc_hd__and2_1_5/a_59_75#
+ sky130_fd_sc_hd__and4_1_1/VGND sky130_fd_sc_hd__and3_1_0/a_109_47# sky130_fd_sc_hd__or4_1_0/VPWR
+ sky130_fd_sc_hd__and3_1_0/a_181_47# sky130_fd_sc_hd__xor2_1_0/a_285_297# sky130_fd_sc_hd__and2_1_0/B
+ sky130_fd_sc_hd__or4_1_0/B sky130_fd_sc_hd__or4_1_0/a_109_297# sky130_fd_sc_hd__and2_1_4/VPWR
+ sky130_fd_sc_hd__and2_1_0/A sky130_fd_sc_hd__or2_1_0/VPB sky130_fd_sc_hd__and3_1_0/a_27_47#
+ a_187_n2435# sky130_fd_sc_hd__and3_1_0/VPWR sky130_fd_sc_hd__and4_1_1/VPB sky130_fd_sc_hd__xor2_1_0/a_285_47#
+ a_19_n2185# sky130_fd_sc_hd__xor2_1_0/a_35_297# sky130_fd_sc_hd__and2_1_4/a_145_75#
+ sky130_fd_sc_hd__and2_1_0/a_145_75# sky130_fd_sc_hd__and4_1_1/a_27_47# a_155_n4715#
+ sky130_fd_sc_hd__or4_1_0/VGND sky130_fd_sc_hd__or4_1_0/A sky130_fd_sc_hd__and2_1_4/VGND
+ sky130_fd_sc_hd__or2_1_0/a_68_297# sky130_fd_sc_hd__and2_1_0/VPB a_195_n517# a_n63_n2185#
+ a_197_n3749# sky130_fd_sc_hd__or4_1_0/X sky130_fd_sc_hd__and4_1_0/a_109_47# a_195_n767#
+ a_197_n3999# sky130_fd_sc_hd__and2_1_5/VPWR sky130_fd_sc_hd__and3_1_0/VGND sky130_fd_sc_hd__or2_1_0/VPWR
+ sky130_fd_sc_hd__and4_1_0/B sky130_fd_sc_hd__and2_1_5/a_145_75# sky130_fd_sc_hd__and2_1_0/a_59_75#
+ sky130_fd_sc_hd__and4_1_0/VPWR a_153_n1483# a_27_n517# a_69_n4715# sky130_fd_sc_hd__or2_1_0/B
+ sky130_fd_sc_hd__or2_1_0/A sky130_fd_sc_hd__or4_1_0/a_277_297# sky130_fd_sc_hd__and4_1_0/a_197_47#
+ sky130_fd_sc_hd__and2_1_4/VPB sky130_fd_sc_hd__xor2_1_0/a_117_297# sky130_fd_sc_hd__and3_1_0/VPB
+ sky130_fd_sc_hd__and4_1_0/a_303_47# sky130_fd_sc_hd__and4_1_1/C sky130_fd_sc_hd__and4_1_1/a_109_47#
+ sky130_fd_sc_hd__or4_1_0/VPB sky130_fd_sc_hd__or4_1_0/a_27_297# a_29_n3749# sky130_fd_sc_hd__and2_1_5/VGND
+ sky130_fd_sc_hd__or4_1_0/a_205_297# sky130_fd_sc_hd__and2_1_4/a_59_75# sky130_fd_sc_hd__or2_1_0/VGND
+ a_n53_n3749# a_n55_n517# sky130_fd_sc_hd__and4_1_1/A sky130_fd_sc_hd__xor2_1_0/B
+ sky130_fd_sc_hd__and4_1_0/VGND sky130_fd_sc_hd__xor2_1_0/A sky130_fd_sc_hd__or4_1_0/C
+ a_67_n1483# sky130_fd_sc_hd__and4_1_1/VPWR a_59_n3151# sky130_fd_sc_hd__xor2_1_0/X
+ sky130_fd_sc_hd__and4_1_1/a_197_47# VPB X B a_145_n3151# A
Xsky130_fd_sc_hd__xor2_1_3 A B A VNB VPB B X a_19_n2185# a_187_n2185# a_187_n2435#
+ a_n63_n2185# sky130_fd_sc_hd__xor2_1
Xsky130_fd_sc_hd__and2_1_0 sky130_fd_sc_hd__and2_1_0/A sky130_fd_sc_hd__and2_1_0/B
+ sky130_fd_sc_hd__and2_1_0/A VNB sky130_fd_sc_hd__and2_1_0/VPB sky130_fd_sc_hd__and2_1_0/B
+ sky130_fd_sc_hd__and4_1_0/B sky130_fd_sc_hd__and2_1_0/a_145_75# sky130_fd_sc_hd__and2_1_0/a_59_75#
+ sky130_fd_sc_hd__and2_1
Xsky130_fd_sc_hd__and2_1_1 A B A VNB VPB B X a_153_n1483# a_67_n1483# sky130_fd_sc_hd__and2_1
Xsky130_fd_sc_hd__and2_1_3 A B A VNB VPB B X a_145_n3151# a_59_n3151# sky130_fd_sc_hd__and2_1
Xsky130_fd_sc_hd__and2_1_2 A B A VNB VPB B X a_155_n4715# a_69_n4715# sky130_fd_sc_hd__and2_1
Xsky130_fd_sc_hd__and2_1_4 X X sky130_fd_sc_hd__and2_1_4/VGND VNB sky130_fd_sc_hd__and2_1_4/VPB
+ sky130_fd_sc_hd__and2_1_4/VPWR sky130_fd_sc_hd__or4_1_0/C sky130_fd_sc_hd__and2_1_4/a_145_75#
+ sky130_fd_sc_hd__and2_1_4/a_59_75# sky130_fd_sc_hd__and2_1
Xsky130_fd_sc_hd__and2_1_5 X X sky130_fd_sc_hd__and2_1_5/VGND VNB sky130_fd_sc_hd__and2_1_5/VPB
+ sky130_fd_sc_hd__and2_1_5/VPWR sky130_fd_sc_hd__and4_1_1/C sky130_fd_sc_hd__and2_1_5/a_145_75#
+ sky130_fd_sc_hd__and2_1_5/a_59_75# sky130_fd_sc_hd__and2_1
Xsky130_fd_sc_hd__or2_1_0 sky130_fd_sc_hd__or2_1_0/A sky130_fd_sc_hd__or2_1_0/B sky130_fd_sc_hd__or2_1_0/VGND
+ VNB sky130_fd_sc_hd__or2_1_0/VPB sky130_fd_sc_hd__or2_1_0/VPWR sky130_fd_sc_hd__or4_1_0/A
+ sky130_fd_sc_hd__or2_1_0/a_150_297# sky130_fd_sc_hd__or2_1_0/a_68_297# sky130_fd_sc_hd__or2_1
Xsky130_fd_sc_hd__and4_1_0 X sky130_fd_sc_hd__and4_1_0/B sky130_fd_sc_hd__xor2_1_0/X
+ X sky130_fd_sc_hd__and4_1_0/VGND VNB sky130_fd_sc_hd__and4_1_0/VPB sky130_fd_sc_hd__and4_1_0/VPWR
+ sky130_fd_sc_hd__or2_1_0/A sky130_fd_sc_hd__and4_1_0/a_109_47# sky130_fd_sc_hd__and4_1_0/a_197_47#
+ sky130_fd_sc_hd__and4_1_0/a_303_47# sky130_fd_sc_hd__and4_1_0/a_27_47# sky130_fd_sc_hd__and4_1
Xsky130_fd_sc_hd__and4_1_1 sky130_fd_sc_hd__and4_1_1/A X sky130_fd_sc_hd__and4_1_1/C
+ sky130_fd_sc_hd__xor2_1_0/X sky130_fd_sc_hd__and4_1_1/VGND VNB sky130_fd_sc_hd__and4_1_1/VPB
+ sky130_fd_sc_hd__and4_1_1/VPWR sky130_fd_sc_hd__or4_1_0/B sky130_fd_sc_hd__and4_1_1/a_109_47#
+ sky130_fd_sc_hd__and4_1_1/a_197_47# sky130_fd_sc_hd__and4_1_1/a_303_47# sky130_fd_sc_hd__and4_1_1/a_27_47#
+ sky130_fd_sc_hd__and4_1
Xsky130_fd_sc_hd__or4_1_0 sky130_fd_sc_hd__or4_1_0/A sky130_fd_sc_hd__or4_1_0/B sky130_fd_sc_hd__or4_1_0/C
+ sky130_fd_sc_hd__or4_1_0/D sky130_fd_sc_hd__or4_1_0/VGND VNB sky130_fd_sc_hd__or4_1_0/VPB
+ sky130_fd_sc_hd__or4_1_0/VPWR sky130_fd_sc_hd__or4_1_0/X sky130_fd_sc_hd__or4_1_0/a_277_297#
+ sky130_fd_sc_hd__or4_1_0/a_205_297# sky130_fd_sc_hd__or4_1_0/a_27_297# sky130_fd_sc_hd__or4_1_0/a_109_297#
+ sky130_fd_sc_hd__or4_1
Xsky130_fd_sc_hd__and3_1_0 X X X sky130_fd_sc_hd__and3_1_0/VGND VNB sky130_fd_sc_hd__and3_1_0/VPB
+ sky130_fd_sc_hd__and3_1_0/VPWR sky130_fd_sc_hd__or2_1_0/B sky130_fd_sc_hd__and3_1_0/a_181_47#
+ sky130_fd_sc_hd__and3_1_0/a_109_47# sky130_fd_sc_hd__and3_1_0/a_27_47# sky130_fd_sc_hd__and3_1
Xsky130_fd_sc_hd__xor2_1_0 sky130_fd_sc_hd__xor2_1_0/A sky130_fd_sc_hd__xor2_1_0/B
+ sky130_fd_sc_hd__xor2_1_0/A VNB sky130_fd_sc_hd__xor2_1_0/VPB sky130_fd_sc_hd__xor2_1_0/B
+ sky130_fd_sc_hd__xor2_1_0/X sky130_fd_sc_hd__xor2_1_0/a_117_297# sky130_fd_sc_hd__xor2_1_0/a_285_297#
+ sky130_fd_sc_hd__xor2_1_0/a_285_47# sky130_fd_sc_hd__xor2_1_0/a_35_297# sky130_fd_sc_hd__xor2_1
Xsky130_fd_sc_hd__xor2_1_1 A B A VNB VPB B X a_27_n517# a_195_n517# a_195_n767# a_n55_n517#
+ sky130_fd_sc_hd__xor2_1
Xsky130_fd_sc_hd__xor2_1_2 A B A VNB VPB B X a_29_n3749# a_197_n3749# a_197_n3999#
+ a_n53_n3749# sky130_fd_sc_hd__xor2_1
C0 sky130_fd_sc_hd__xor2_1_0/a_35_297# sky130_fd_sc_hd__and2_1_0/VPB 0.0035f
C1 sky130_fd_sc_hd__or4_1_0/A X 0.00571f
C2 sky130_fd_sc_hd__xor2_1_0/A sky130_fd_sc_hd__xor2_1_0/X 0.03369f
C3 sky130_fd_sc_hd__or2_1_0/A sky130_fd_sc_hd__or2_1_0/a_150_297# 0.00183f
C4 sky130_fd_sc_hd__and4_1_0/VGND sky130_fd_sc_hd__or2_1_0/a_68_297# 0.00157f
C5 sky130_fd_sc_hd__xor2_1_0/X sky130_fd_sc_hd__and2_1_5/VPB 0.0094f
C6 sky130_fd_sc_hd__and2_1_5/a_59_75# sky130_fd_sc_hd__and2_1_5/VGND -0.00121f
C7 X sky130_fd_sc_hd__and4_1_1/VPWR -0.00415f
C8 sky130_fd_sc_hd__and3_1_0/VGND A 0.00212f
C9 sky130_fd_sc_hd__and2_1_0/A sky130_fd_sc_hd__and4_1_1/C 0
C10 sky130_fd_sc_hd__and4_1_0/B sky130_fd_sc_hd__and4_1_0/a_303_47# 0
C11 X sky130_fd_sc_hd__and3_1_0/a_181_47# 0.00275f
C12 sky130_fd_sc_hd__xor2_1_0/a_285_297# sky130_fd_sc_hd__xor2_1_0/X 0.0032f
C13 sky130_fd_sc_hd__and3_1_0/VGND a_n63_n2185# 0
C14 A sky130_fd_sc_hd__and2_1_5/VGND 0
C15 sky130_fd_sc_hd__and4_1_1/a_109_47# X 0
C16 sky130_fd_sc_hd__and4_1_1/A sky130_fd_sc_hd__and2_1_0/VPB 0
C17 sky130_fd_sc_hd__or4_1_0/A sky130_fd_sc_hd__or4_1_0/VPB 0.01499f
C18 sky130_fd_sc_hd__or2_1_0/VGND sky130_fd_sc_hd__and3_1_0/VPB 0.00189f
C19 sky130_fd_sc_hd__xor2_1_0/X B 0
C20 sky130_fd_sc_hd__and4_1_1/C X 0.19117f
C21 sky130_fd_sc_hd__xor2_1_0/X a_n55_n517# 0
C22 sky130_fd_sc_hd__and4_1_1/a_27_47# sky130_fd_sc_hd__or4_1_0/B 0.00909f
C23 sky130_fd_sc_hd__or4_1_0/VPWR sky130_fd_sc_hd__or4_1_0/B 0.18975f
C24 sky130_fd_sc_hd__or4_1_0/D sky130_fd_sc_hd__or2_1_0/VPWR 0.00421f
C25 sky130_fd_sc_hd__or4_1_0/a_27_297# sky130_fd_sc_hd__or2_1_0/VPWR 0
C26 sky130_fd_sc_hd__and4_1_1/a_27_47# sky130_fd_sc_hd__xor2_1_0/X 0.12778f