* SPICE3 file created from tt_um_ohmy90_adders.ext - technology: sky130A

.subckt sky130_fd_sc_hd__inv_1 A VGND VNB VPB VPWR Y
X0 Y A VGND VNB sky130_fd_pr__nfet_01v8 ad=0.169 pd=1.82 as=0.169 ps=1.82 w=0.65 l=0.15
X1 Y A VPWR VPB sky130_fd_pr__pfet_01v8_hvt ad=0.26 pd=2.52 as=0.26 ps=2.52 w=1 l=0.15
C0 VGND VPWR 0.03382f
C1 VPB A 0.04506f
C2 VPB VPWR 0.05448f
C3 VPB VGND 0.00948f
C4 Y A 0.0476f
C5 Y VPWR 0.12758f
C6 Y VGND 0.09984f
C7 Y VPB 0.01774f
C8 A VPWR 0.03703f
C9 VGND A 0.04004f
C10 VGND VNB 0.25113f
C11 Y VNB 0.0961f
C12 VPWR VNB 0.21892f
C13 A VNB 0.16664f
C14 VPB VNB 0.33898f
.ends

.subckt sky130_fd_sc_hd__mux4_1 A0 A1 A2 A3 S0 S1 VGND VNB VPB VPWR X a_1290_413#
+ a_757_363# a_1478_413# a_277_47# a_750_97# a_27_413# a_923_363# a_193_47# a_834_97#
+ a_247_21# a_668_97# a_193_413# a_27_47#
X0 a_277_47# a_247_21# a_27_413# VPB sky130_fd_pr__pfet_01v8_hvt ad=0.0567 pd=0.69 as=0.1092 ps=1.36 w=0.42 l=0.15
X1 VGND S0 a_247_21# VNB sky130_fd_pr__nfet_01v8 ad=0.1092 pd=1.36 as=0.1092 ps=1.36 w=0.42 l=0.15
X2 a_834_97# a_247_21# a_750_97# VNB sky130_fd_pr__nfet_01v8 ad=0.10795 pd=1.36 as=0.0567 ps=0.69 w=0.42 l=0.15
X3 VGND A3 a_668_97# VNB sky130_fd_pr__nfet_01v8 ad=0.0567 pd=0.69 as=0.1079 ps=1.36 w=0.42 l=0.15
X4 a_1290_413# S1 VPWR VPB sky130_fd_pr__pfet_01v8_hvt ad=0.1092 pd=1.36 as=0.1092 ps=1.36 w=0.42 l=0.15
X5 a_834_97# A2 VGND VNB sky130_fd_pr__nfet_01v8 ad=0.1092 pd=1.36 as=0.0567 ps=0.69 w=0.42 l=0.15
X6 a_750_97# S0 a_757_363# VPB sky130_fd_pr__pfet_01v8_hvt ad=0.0567 pd=0.69 as=0.1079 ps=1.36 w=0.42 l=0.15
X7 a_27_47# S0 a_277_47# VNB sky130_fd_pr__nfet_01v8 ad=0.1092 pd=1.36 as=0.08523 ps=0.925 w=0.42 l=0.15
X8 X a_1478_413# VGND VNB sky130_fd_pr__nfet_01v8 ad=0.169 pd=1.82 as=0.169 ps=1.82 w=0.65 l=0.15
X9 VPWR A1 a_27_413# VPB sky130_fd_pr__pfet_01v8_hvt ad=0.0567 pd=0.69 as=0.1092 ps=1.36 w=0.42 l=0.15
X10 VPWR S0 a_247_21# VPB sky130_fd_pr__pfet_01v8_hvt ad=0.1079 pd=1.36 as=0.1083 ps=1.36 w=0.42 l=0.15
X11 X a_1478_413# VPWR VPB sky130_fd_pr__pfet_01v8_hvt ad=0.26 pd=2.52 as=0.26 ps=2.52 w=1 l=0.15
X12 a_193_47# A0 VGND VNB sky130_fd_pr__nfet_01v8 ad=0.0567 pd=0.69 as=0.0567 ps=0.69 w=0.42 l=0.15
X13 a_750_97# a_1290_413# a_1478_413# VPB sky130_fd_pr__pfet_01v8_hvt ad=0.2688 pd=2.12 as=0.09207 ps=0.99 w=0.42 l=0.15
X14 a_1478_413# S1 a_277_47# VPB sky130_fd_pr__pfet_01v8_hvt ad=0.09207 pd=0.99 as=0.1092 ps=1.36 w=0.42 l=0.15
X15 a_1290_413# S1 VGND VNB sky130_fd_pr__nfet_01v8 ad=0.1092 pd=1.36 as=0.1092 ps=1.36 w=0.42 l=0.15
X16 a_277_47# a_247_21# a_193_47# VNB sky130_fd_pr__nfet_01v8 ad=0.08523 pd=0.925 as=0.0567 ps=0.69 w=0.42 l=0.15
X17 a_750_97# S0 a_668_97# VNB sky130_fd_pr__nfet_01v8 ad=0.0567 pd=0.69 as=0.1092 ps=1.36 w=0.42 l=0.15
X18 a_923_363# a_247_21# a_750_97# VPB sky130_fd_pr__pfet_01v8_hvt ad=0.09013 pd=0.995 as=0.0567 ps=0.69 w=0.42 l=0.15
X19 a_757_363# A2 VPWR VPB sky130_fd_pr__pfet_01v8_hvt ad=0.1092 pd=1.36 as=0.0567 ps=0.69 w=0.42 l=0.15
X20 VPWR A3 a_923_363# VPB sky130_fd_pr__pfet_01v8_hvt ad=0.0567 pd=0.69 as=0.09013 ps=0.995 w=0.42 l=0.15
X21 a_277_47# a_1290_413# a_1478_413# VNB sky130_fd_pr__nfet_01v8 ad=0.1092 pd=1.36 as=0.15102 ps=1.285 w=0.42 l=0.15
X22 a_193_413# A0 VPWR VPB sky130_fd_pr__pfet_01v8_hvt ad=0.1092 pd=1.36 as=0.0567 ps=0.69 w=0.42 l=0.15
X23 a_193_413# S0 a_277_47# VPB sky130_fd_pr__pfet_01v8_hvt ad=0.1079 pd=1.36 as=0.0567 ps=0.69 w=0.42 l=0.15
X24 VGND A1 a_27_47# VNB sky130_fd_pr__nfet_01v8 ad=0.0567 pd=0.69 as=0.1092 ps=1.36 w=0.42 l=0.15
X25 a_1478_413# S1 a_750_97# VNB sky130_fd_pr__nfet_01v8 ad=0.15102 pd=1.285 as=0.1092 ps=1.36 w=0.42 l=0.15
C0 A3 a_923_363# 0
C1 a_668_97# VPB 0.00146f
C2 A3 VPWR 0.012f
C3 A1 a_27_47# 0.03909f
C4 a_277_47# a_757_363# 0
C5 a_750_97# A2 0.01619f
C6 VGND a_27_413# 0.00189f
C7 a_750_97# VGND 0.05676f
C8 a_668_97# VPWR 0.00181f
C9 A2 a_757_363# 0.03541f
C10 VPB S1 0.21534f
C11 S0 a_27_413# 0
C12 a_750_97# S0 0.09449f
C13 A3 a_247_21# 0.07395f
C14 a_750_97# a_834_97# 0.0296f
C15 S0 a_757_363# 0.03305f
C16 VPWR S1 0.0409f
C17 a_668_97# a_247_21# 0.01881f
C18 a_834_97# a_757_363# 0.01352f
C19 a_277_47# A2 0.01375f
C20 X a_1290_413# 0.00208f
C21 a_277_47# VGND 0.41112f
C22 VPB a_27_47# 0.00324f
C23 a_247_21# S1 0
C24 a_277_47# S0 0.03381f
C25 A2 VGND 0.0122f
C26 a_277_47# a_834_97# 0.04391f
C27 VPWR a_27_47# 0.0018f
C28 A0 a_27_47# 0.04574f
C29 VGND S0 0.06675f
C30 X a_1478_413# 0.12698f
C31 a_834_97# A2 0.04394f
C32 VPB a_1290_413# 0.14223f
C33 a_834_97# VGND 0.09477f
C34 a_193_413# a_27_413# 0.05551f
C35 a_193_413# a_750_97# 0
C36 a_247_21# a_27_47# 0.0457f
C37 a_834_97# S0 0
C38 a_923_363# a_1290_413# 0
C39 A1 a_27_413# 0.0413f
C40 A1 a_750_97# 0
C41 VPWR a_1290_413# 0.0823f
C42 X a_750_97# 0
C43 a_1478_413# VPB 0.07712f
C44 a_247_21# a_1290_413# 0.00705f
C45 a_193_413# a_277_47# 0.0594f
C46 a_1478_413# VPWR 0.21151f
C47 A1 a_277_47# 0.00101f
C48 a_193_413# VGND 0
C49 VPB a_27_413# 0.02285f
C50 a_750_97# VPB 0.05933f
C51 a_277_47# X 0
C52 a_193_413# S0 0.01772f
C53 A1 VGND 0.01705f
C54 a_247_21# a_1478_413# 0
C55 VPB a_757_363# 0.0237f
C56 a_923_363# a_750_97# 0.00222f
C57 VPWR a_27_413# 0.08385f
C58 A0 a_27_413# 0.04892f
C59 a_750_97# A0 0
C60 a_750_97# VPWR 0.22609f
C61 X VGND 0.05939f
C62 a_923_363# a_757_363# 0.00988f
C63 VPWR a_757_363# 0.24812f
C64 A3 a_668_97# 0.0033f
C65 a_247_21# a_27_413# 0.00549f
C66 a_277_47# VPB 0.03677f
C67 a_750_97# a_247_21# 0.12371f
C68 A3 S1 0
C69 A2 VPB 0.07872f
C70 a_247_21# a_757_363# 0.02645f
C71 VGND VPB 0.01387f
C72 a_277_47# A0 0.05427f
C73 a_277_47# VPWR 0.05706f
C74 VPB S0 0.31074f
C75 A2 VPWR 0.0129f
C76 VGND VPWR 0.05896f
C77 A0 VGND 0.01709f
C78 a_834_97# VPB 0.00426f
C79 a_27_47# a_193_47# 0.00648f
C80 a_277_47# a_247_21# 0.35203f
C81 A0 S0 0.00186f
C82 VPWR S0 0.0687f
C83 A3 a_27_47# 0
C84 A1 a_193_413# 0
C85 a_923_363# a_834_97# 0
C86 a_247_21# A2 0.00145f
C87 a_834_97# VPWR 0
C88 a_247_21# VGND 0.09412f
C89 a_247_21# S0 0.39319f
C90 a_834_97# a_247_21# 0.02707f
C91 A3 a_1290_413# 0
C92 a_668_97# a_1290_413# 0
C93 a_193_413# VPB 0.01733f
C94 A1 VPB 0.0741f
C95 S1 a_1290_413# 0.15612f
C96 a_193_413# VPWR 0.18442f
C97 a_193_413# A0 0.00145f
C98 X VPB 0.01181f
C99 A1 A0 0.14123f
C100 A1 VPWR 0.01712f
C101 a_193_413# a_247_21# 0.09132f
C102 X VPWR 0.05937f
C103 a_1478_413# S1 0.00517f
C104 A3 a_750_97# 0.03406f
C105 A1 a_247_21# 0
C106 A3 a_757_363# 0.03224f
C107 a_668_97# a_750_97# 0.04662f
C108 X a_247_21# 0
C109 VPB VPWR 0.22689f
C110 A0 VPB 0.08019f
C111 a_277_47# a_193_47# 0
C112 a_750_97# S1 0.06323f
C113 A3 a_277_47# 0.0121f
C114 a_923_363# VPWR 0.00225f
C115 S1 a_757_363# 0.00151f
C116 A0 VPWR 0.01747f
C117 VGND a_193_47# 0.00175f
C118 A3 A2 0.15492f
C119 a_277_47# a_668_97# 0.02235f
C120 a_247_21# VPB 0.22297f
C121 A3 VGND 0.01161f
C122 A3 S0 0.00317f
C123 a_1478_413# a_1290_413# 0.10432f
C124 a_27_47# a_27_413# 0.00987f
C125 a_668_97# VGND 0.22352f
C126 a_247_21# VPWR 0.15063f
C127 a_277_47# S1 0.06116f
C128 a_247_21# A0 0.07359f
C129 A3 a_834_97# 0.03609f
C130 a_668_97# S0 0.03f
C131 A2 S1 0.06853f
C132 VGND S1 0.04087f
C133 a_668_97# a_834_97# 0.05583f
C134 a_750_97# a_1290_413# 0.17579f
C135 a_834_97# S1 0.00189f
C136 a_277_47# a_27_47# 0.08551f
C137 a_757_363# a_1290_413# 0.0098f
C138 VGND a_27_47# 0.22952f
C139 a_750_97# a_1478_413# 0.1456f
C140 S0 a_27_47# 0.01792f
C141 a_277_47# a_1290_413# 0.33858f
C142 A2 a_1290_413# 0.00165f
C143 VGND a_1290_413# 0.06373f
C144 a_750_97# a_27_413# 0
C145 a_277_47# a_1478_413# 0.09435f
C146 a_834_97# a_1290_413# 0.01242f
C147 a_750_97# a_757_363# 0.13413f
C148 a_1478_413# VGND 0.18885f
C149 X S1 0
C150 A3 VPB 0.07252f
C151 a_277_47# a_27_413# 0.05408f
C152 a_277_47# a_750_97# 0.26678f
C153 A0 a_193_47# 0
C154 VPWR a_193_47# 0
C155 VGND VNB 1.07507f
C156 X VNB 0.09236f
C157 S1 VNB 0.32062f
C158 A2 VNB 0.11249f
C159 A3 VNB 0.11926f
C160 S0 VNB 0.46486f
C161 VPWR VNB 0.86887f
C162 A0 VNB 0.10257f
C163 A1 VNB 0.17585f
C164 VPB VNB 1.9337f
C165 a_834_97# VNB 0.02499f
C166 a_668_97# VNB 0.02039f
C167 a_27_47# VNB 0.04207f
C168 a_1478_413# VNB 0.16413f
C169 a_1290_413# VNB 0.2199f
C170 a_750_97# VNB 0.04192f
C171 a_757_363# VNB 0.00666f
C172 a_277_47# VNB 0.07984f
C173 a_247_21# VNB 0.34344f
C174 a_193_413# VNB 0.00373f
C175 a_27_413# VNB 0.02865f
.ends

.subckt sky130_fd_sc_hd__xor2_1 A B VGND VNB VPB VPWR X a_117_297# a_285_297# a_285_47#
+ a_35_297#
X0 X a_35_297# a_285_297# VPB sky130_fd_pr__pfet_01v8_hvt ad=0.3 pd=2.6 as=0.26 ps=2.52 w=1 l=0.15
X1 X B a_285_47# VNB sky130_fd_pr__nfet_01v8 ad=0.25025 pd=1.42 as=0.08775 ps=0.92 w=0.65 l=0.15
X2 a_35_297# B VGND VNB sky130_fd_pr__nfet_01v8 ad=0.08775 pd=0.92 as=0.169 ps=1.82 w=0.65 l=0.15
X3 a_117_297# B a_35_297# VPB sky130_fd_pr__pfet_01v8_hvt ad=0.135 pd=1.27 as=0.26 ps=2.52 w=1 l=0.15
X4 VPWR B a_285_297# VPB sky130_fd_pr__pfet_01v8_hvt ad=0.26 pd=2.52 as=0.135 ps=1.27 w=1 l=0.15
X5 VGND A a_35_297# VNB sky130_fd_pr__nfet_01v8 ad=0.08775 pd=0.92 as=0.08775 ps=0.92 w=0.65 l=0.15
X6 VGND a_35_297# X VNB sky130_fd_pr__nfet_01v8 ad=0.208 pd=1.94 as=0.25025 ps=1.42 w=0.65 l=0.15
X7 a_285_297# A VPWR VPB sky130_fd_pr__pfet_01v8_hvt ad=0.135 pd=1.27 as=0.135 ps=1.27 w=1 l=0.15
X8 VPWR A a_117_297# VPB sky130_fd_pr__pfet_01v8_hvt ad=0.135 pd=1.27 as=0.135 ps=1.27 w=1 l=0.15
X9 a_285_47# A VGND VNB sky130_fd_pr__nfet_01v8 ad=0.08775 pd=0.92 as=0.08775 ps=0.92 w=0.65 l=0.15
C0 a_285_297# a_35_297# 0.02504f
C1 a_285_47# VPWR 0
C2 B VPWR 0.07031f
C3 a_117_297# VPWR 0.00852f
C4 a_285_297# VGND 0.00394f
C5 a_285_47# B 0
C6 B a_117_297# 0.00777f
C7 X VPWR 0.05365f
C8 A VPWR 0.03484f
C9 VPB VPWR 0.06891f
C10 X a_285_47# 0.00206f
C11 X B 0.01488f
C12 X a_117_297# 0
C13 A B 0.22134f
C14 a_35_297# VPWR 0.09604f
C15 VPB B 0.06969f
C16 VGND VPWR 0.06426f
C17 a_285_47# a_35_297# 0.00723f
C18 B a_35_297# 0.203f
C19 a_35_297# a_117_297# 0.00641f
C20 A X 0.00166f
C21 VGND a_285_47# 0.00552f
C22 VGND B 0.03045f
C23 X VPB 0.01541f
C24 VGND a_117_297# 0.00177f
C25 A VPB 0.05101f
C26 X a_35_297# 0.166f
C27 A a_35_297# 0.06334f
C28 X VGND 0.1729f
C29 VPB a_35_297# 0.06993f
C30 a_285_297# VPWR 0.24631f
C31 A VGND 0.03254f
C32 VPB VGND 0.00696f
C33 a_285_297# B 0.05532f
C34 VGND a_35_297# 0.17666f
C35 a_285_297# X 0.07125f
C36 a_285_297# A 0.00749f
C37 a_285_297# VPB 0.01327f
C38 VGND VNB 0.43488f
C39 X VNB 0.06491f
C40 VPWR VNB 0.33278f
C41 A VNB 0.16672f
C42 B VNB 0.21337f
C43 VPB VNB 0.69336f
C44 a_285_297# VNB 0.00137f
C45 a_35_297# VNB 0.25457f
.ends

.subckt sky130_fd_sc_hd__and2_1 A B VGND VNB VPB VPWR X a_145_75# a_59_75#
X0 VPWR B a_59_75# VPB sky130_fd_pr__pfet_01v8_hvt ad=0.16655 pd=1.39 as=0.0567 ps=0.69 w=0.42 l=0.15
X1 X a_59_75# VPWR VPB sky130_fd_pr__pfet_01v8_hvt ad=0.475 pd=2.95 as=0.16655 ps=1.39 w=1 l=0.15
X2 VGND B a_145_75# VNB sky130_fd_pr__nfet_01v8 ad=0.1118 pd=1.04 as=0.0567 ps=0.69 w=0.42 l=0.15
X3 a_59_75# A VPWR VPB sky130_fd_pr__pfet_01v8_hvt ad=0.0567 pd=0.69 as=0.1176 ps=1.4 w=0.42 l=0.15
X4 X a_59_75# VGND VNB sky130_fd_pr__nfet_01v8 ad=0.182 pd=1.86 as=0.1118 ps=1.04 w=0.65 l=0.15
X5 a_145_75# A a_59_75# VNB sky130_fd_pr__nfet_01v8 ad=0.0567 pd=0.69 as=0.1176 ps=1.4 w=0.42 l=0.15
C0 VPWR B 0.01175f
C1 VPB A 0.08057f
C2 X A 0
C3 A VGND 0.01472f
C4 VPB a_59_75# 0.05631f
C5 a_145_75# a_59_75# 0.00658f
C6 VPWR A 0.03623f
C7 X a_59_75# 0.10872f
C8 a_59_75# VGND 0.11564f
C9 VPWR a_59_75# 0.15028f
C10 VPB X 0.01265f
C11 a_145_75# X 0
C12 A B 0.09709f
C13 VPB VGND 0.008f
C14 a_145_75# VGND 0.00468f
C15 VPB VPWR 0.07293f
C16 X VGND 0.09933f
C17 a_145_75# VPWR 0
C18 X VPWR 0.11122f
C19 a_59_75# B 0.14331f
C20 VPWR VGND 0.04608f
C21 VPB B 0.06287f
C22 X B 0.00276f
C23 A a_59_75# 0.08088f
C24 VGND B 0.01146f
C25 VGND VNB 0.3114f
C26 X VNB 0.10018f
C27 B VNB 0.11287f
C28 A VNB 0.17379f
C29 VPWR VNB 0.27345f
C30 VPB VNB 0.51617f
C31 a_59_75# VNB 0.17706f
.ends

.subckt sky130_fd_sc_hd__or2_1 A B VGND VNB VPB VPWR X a_150_297# a_68_297#
X0 VGND A a_68_297# VNB sky130_fd_pr__nfet_01v8 ad=0.10025 pd=0.985 as=0.0567 ps=0.69 w=0.42 l=0.15
X1 a_68_297# B VGND VNB sky130_fd_pr__nfet_01v8 ad=0.0567 pd=0.69 as=0.1092 ps=1.36 w=0.42 l=0.15
X2 X a_68_297# VGND VNB sky130_fd_pr__nfet_01v8 ad=0.169 pd=1.82 as=0.10025 ps=0.985 w=0.65 l=0.15
X3 VPWR A a_150_297# VPB sky130_fd_pr__pfet_01v8_hvt ad=0.14575 pd=1.335 as=0.0441 ps=0.63 w=0.42 l=0.15
X4 X a_68_297# VPWR VPB sky130_fd_pr__pfet_01v8_hvt ad=0.34 pd=2.68 as=0.14575 ps=1.335 w=1 l=0.15
X5 a_150_297# B a_68_297# VPB sky130_fd_pr__pfet_01v8_hvt ad=0.0441 pd=0.63 as=0.1092 ps=1.36 w=0.42 l=0.15
C0 B VPB 0.0462f
C1 X a_150_297# 0
C2 B X 0
C3 VPB A 0.03097f
C4 X A 0.01305f
C5 VGND VPWR 0.04645f
C6 a_68_297# VPB 0.06114f
C7 X a_68_297# 0.10534f
C8 B A 0.07509f
C9 VGND VPB 0.0112f
C10 VPB VPWR 0.08053f
C11 X VGND 0.11395f
C12 X VPWR 0.12857f
C13 a_68_297# a_150_297# 0.00477f
C14 B a_68_297# 0.09843f
C15 a_68_297# A 0.15786f
C16 VGND a_150_297# 0
C17 B VGND 0.04365f
C18 VPWR a_150_297# 0.00193f
C19 B VPWR 0.00855f
C20 X VPB 0.0209f
C21 VGND A 0.03465f
C22 A VPWR 0.00846f
C23 a_68_297# VGND 0.11796f
C24 a_68_297# VPWR 0.08898f
C25 VGND VNB 0.32043f
C26 X VNB 0.10095f
C27 A VNB 0.11072f
C28 B VNB 0.18272f
C29 VPWR VNB 0.26856f
C30 VPB VNB 0.51617f
C31 a_68_297# VNB 0.15387f
.ends

.subckt sky130_fd_sc_hd__and4_1 A B C D VGND VNB VPB VPWR X a_109_47# a_197_47# a_303_47#
+ a_27_47#
X0 a_27_47# C VPWR VPB sky130_fd_pr__pfet_01v8_hvt ad=0.0588 pd=0.7 as=0.0777 ps=0.79 w=0.42 l=0.15
X1 a_197_47# B a_109_47# VNB sky130_fd_pr__nfet_01v8 ad=0.0798 pd=0.8 as=0.0609 ps=0.71 w=0.42 l=0.15
X2 X a_27_47# VPWR VPB sky130_fd_pr__pfet_01v8_hvt ad=0.26 pd=2.52 as=0.31245 ps=1.68 w=1 l=0.15
X3 a_303_47# C a_197_47# VNB sky130_fd_pr__nfet_01v8 ad=0.0693 pd=0.75 as=0.0798 ps=0.8 w=0.42 l=0.15
X4 a_27_47# A VPWR VPB sky130_fd_pr__pfet_01v8_hvt ad=0.0735 pd=0.77 as=0.1092 ps=1.36 w=0.42 l=0.15
X5 VPWR D a_27_47# VPB sky130_fd_pr__pfet_01v8_hvt ad=0.31245 pd=1.68 as=0.0588 ps=0.7 w=0.42 l=0.15
X6 VGND D a_303_47# VNB sky130_fd_pr__nfet_01v8 ad=0.19627 pd=1.33 as=0.0693 ps=0.75 w=0.42 l=0.15
X7 VPWR B a_27_47# VPB sky130_fd_pr__pfet_01v8_hvt ad=0.0777 pd=0.79 as=0.0735 ps=0.77 w=0.42 l=0.15
X8 X a_27_47# VGND VNB sky130_fd_pr__nfet_01v8 ad=0.169 pd=1.82 as=0.19627 ps=1.33 w=0.65 l=0.15
X9 a_109_47# A a_27_47# VNB sky130_fd_pr__nfet_01v8 ad=0.0609 pd=0.71 as=0.1092 ps=1.36 w=0.42 l=0.15
C0 a_27_47# X 0.07537f
C1 VGND a_303_47# 0.00381f
C2 B VPB 0.06433f
C3 VGND B 0.04527f
C4 a_27_47# a_197_47# 0.00167f
C5 VPWR C 0.02103f
C6 A VPB 0.09066f
C7 A VGND 0.01512f
C8 VPWR VPB 0.07695f
C9 VPWR VGND 0.06618f
C10 A B 0.08391f
C11 a_197_47# C 0.00123f
C12 a_27_47# D 0.10658f
C13 X VPB 0.01107f
C14 VGND X 0.09025f
C15 VPWR a_303_47# 0
C16 VPWR B 0.02308f
C17 VGND a_197_47# 0.00387f
C18 a_27_47# a_109_47# 0.00578f
C19 A VPWR 0.044f
C20 a_197_47# B 0.00623f
C21 C D 0.18016f
C22 a_27_47# C 0.05159f
C23 D VPB 0.07823f
C24 VGND D 0.0898f
C25 VPWR X 0.09451f
C26 C a_109_47# 0
C27 a_27_47# VPB 0.08205f
C28 a_27_47# VGND 0.13176f
C29 VPWR a_197_47# 0
C30 VGND a_109_47# 0.00223f
C31 a_303_47# D 0.00119f
C32 a_27_47# a_303_47# 0.00119f
C33 a_27_47# B 0.12972f
C34 a_109_47# B 0.00153f
C35 C VPB 0.06088f
C36 VGND C 0.04082f
C37 a_27_47# A 0.15343f
C38 VPWR D 0.02073f
C39 a_27_47# VPWR 0.32628f
C40 VGND VPB 0.00852f
C41 C a_303_47# 0.00527f
C42 VPWR a_109_47# 0
C43 C B 0.16061f
C44 X D 0.00746f
C45 VGND VNB 0.39291f
C46 X VNB 0.09332f
C47 VPWR VNB 0.33454f
C48 D VNB 0.13027f
C49 C VNB 0.10983f
C50 B VNB 0.11212f
C51 A VNB 0.22098f
C52 VPB VNB 0.69336f
C53 a_27_47# VNB 0.17489f
.ends

.subckt sky130_fd_sc_hd__or4_1 A B C D VGND VNB VPB VPWR X a_277_297# a_205_297# a_27_297#
+ a_109_297#
X0 a_27_297# B VGND VNB sky130_fd_pr__nfet_01v8 ad=0.0567 pd=0.69 as=0.0567 ps=0.69 w=0.42 l=0.15
X1 a_27_297# D VGND VNB sky130_fd_pr__nfet_01v8 ad=0.0693 pd=0.75 as=0.1092 ps=1.36 w=0.42 l=0.15
X2 a_277_297# B a_205_297# VPB sky130_fd_pr__pfet_01v8_hvt ad=0.0693 pd=0.75 as=0.0441 ps=0.63 w=0.42 l=0.15
X3 VPWR A a_277_297# VPB sky130_fd_pr__pfet_01v8_hvt ad=0.14825 pd=1.34 as=0.0693 ps=0.75 w=0.42 l=0.15
X4 X a_27_297# VGND VNB sky130_fd_pr__nfet_01v8 ad=0.1755 pd=1.84 as=0.10187 ps=0.99 w=0.65 l=0.15
X5 a_205_297# C a_109_297# VPB sky130_fd_pr__pfet_01v8_hvt ad=0.0441 pd=0.63 as=0.0693 ps=0.75 w=0.42 l=0.15
X6 X a_27_297# VPWR VPB sky130_fd_pr__pfet_01v8_hvt ad=0.27 pd=2.54 as=0.14825 ps=1.34 w=1 l=0.15
X7 VGND C a_27_297# VNB sky130_fd_pr__nfet_01v8 ad=0.0567 pd=0.69 as=0.0693 ps=0.75 w=0.42 l=0.15
X8 a_109_297# D a_27_297# VPB sky130_fd_pr__pfet_01v8_hvt ad=0.0693 pd=0.75 as=0.1092 ps=1.36 w=0.42 l=0.15
X9 VGND A a_27_297# VNB sky130_fd_pr__nfet_01v8 ad=0.10187 pd=0.99 as=0.0567 ps=0.69 w=0.42 l=0.15
C0 D VPWR 0.00503f
C1 X a_27_297# 0.0991f
C2 a_205_297# a_27_297# 0.00412f
C3 X VGND 0.03541f
C4 D A 0
C5 a_205_297# VGND 0
C6 VPWR C 0.00723f
C7 A C 0.02804f
C8 B a_277_297# 0
C9 a_109_297# a_27_297# 0.00695f
C10 B a_27_297# 0.15929f
C11 a_109_297# VGND 0
C12 VPB a_27_297# 0.05168f
C13 B VGND 0.01587f
C14 VPB VGND 0.00796f
C15 a_277_297# VPWR 0
C16 B X 0
C17 A a_277_297# 0
C18 VPWR a_27_297# 0.08397f
C19 VPB X 0.01089f
C20 VPWR VGND 0.05464f
C21 A a_27_297# 0.16258f
C22 D C 0.09543f
C23 A VGND 0.01596f
C24 X VPWR 0.08784f
C25 VPWR a_205_297# 0
C26 A X 0.00133f
C27 B VPB 0.10612f
C28 a_109_297# VPWR 0
C29 B VPWR 0.19276f
C30 VPB VPWR 0.07497f
C31 D a_27_297# 0.05404f
C32 a_277_297# C 0
C33 B A 0.06391f
C34 D VGND 0.05172f
C35 VPB A 0.03298f
C36 C a_27_297# 0.15835f
C37 C VGND 0.0191f
C38 A VPWR 0.00769f
C39 C a_205_297# 0.00261f
C40 a_277_297# a_27_297# 0.00876f
C41 a_277_297# VGND 0
C42 D B 0.00287f
C43 D VPB 0.04052f
C44 a_109_297# C 0.00356f
C45 VGND a_27_297# 0.23515f
C46 B C 0.09165f
C47 a_277_297# X 0
C48 VPB C 0.03382f
C49 VGND VNB 0.36697f
C50 X VNB 0.08835f
C51 A VNB 0.10929f
C52 C VNB 0.10488f
C53 D VNB 0.17526f
C54 B VNB 0.11467f
C55 VPWR VNB 0.28998f
C56 VPB VNB 0.60476f
C57 a_27_297# VNB 0.16291f
.ends

.subckt sky130_fd_sc_hd__and3_1 A B C VGND VNB VPB VPWR X a_181_47# a_109_47# a_27_47#
X0 VPWR A a_27_47# VPB sky130_fd_pr__pfet_01v8_hvt ad=0.0567 pd=0.69 as=0.1092 ps=1.36 w=0.42 l=0.15
X1 VPWR C a_27_47# VPB sky130_fd_pr__pfet_01v8_hvt ad=0.14222 pd=1.335 as=0.06615 ps=0.735 w=0.42 l=0.15
X2 a_181_47# B a_109_47# VNB sky130_fd_pr__nfet_01v8 ad=0.0441 pd=0.63 as=0.0441 ps=0.63 w=0.42 l=0.15
X3 VGND C a_181_47# VNB sky130_fd_pr__nfet_01v8 ad=0.13165 pd=1.14 as=0.0441 ps=0.63 w=0.42 l=0.15
X4 a_27_47# B VPWR VPB sky130_fd_pr__pfet_01v8_hvt ad=0.06615 pd=0.735 as=0.0567 ps=0.69 w=0.42 l=0.15
X5 X a_27_47# VPWR VPB sky130_fd_pr__pfet_01v8_hvt ad=0.26 pd=2.52 as=0.14222 ps=1.335 w=1 l=0.15
X6 X a_27_47# VGND VNB sky130_fd_pr__nfet_01v8 ad=0.169 pd=1.82 as=0.13165 ps=1.14 w=0.65 l=0.15
X7 a_109_47# A a_27_47# VNB sky130_fd_pr__nfet_01v8 ad=0.0441 pd=0.63 as=0.1092 ps=1.36 w=0.42 l=0.15
C0 VPWR C 0.00464f
C1 VGND C 0.07031f
C2 B A 0.08692f
C3 B VPB 0.08363f
C4 VPWR VGND 0.04751f
C5 X C 0.01492f
C6 a_181_47# C 0.00151f
C7 a_27_47# C 0.1862f
C8 X VPWR 0.07662f
C9 X VGND 0.07078f
C10 a_181_47# VPWR 0
C11 a_181_47# VGND 0.00261f
C12 a_27_47# VPWR 0.14545f
C13 a_27_47# VGND 0.13361f
C14 B C 0.07462f
C15 VPB A 0.0426f
C16 VPWR a_109_47# 0
C17 a_109_47# VGND 0.00123f
C18 B VPWR 0.12845f
C19 X a_27_47# 0.08704f
C20 B VGND 0.00714f
C21 a_181_47# a_27_47# 0.00401f
C22 X B 0.00111f
C23 a_27_47# a_109_47# 0.00517f
C24 a_27_47# B 0.06246f
C25 VPB C 0.0347f
C26 VPWR A 0.01846f
C27 VGND A 0.01538f
C28 VPWR VPB 0.07946f
C29 VPB VGND 0.00604f
C30 a_27_47# A 0.15687f
C31 X VPB 0.01208f
C32 a_27_47# VPB 0.05008f
C33 a_109_47# A 0
C34 VGND VNB 0.30013f
C35 X VNB 0.09228f
C36 C VNB 0.12026f
C37 A VNB 0.17412f
C38 VPWR VNB 0.27425f
C39 B VNB 0.10179f
C40 VPB VNB 0.51617f
C41 a_27_47# VNB 0.17719f
.ends

.subckt CLA VNB sky130_fd_sc_hd__and4_1_1/a_303_47# sky130_fd_sc_hd__and4_1_0/VPB
+ sky130_fd_sc_hd__xor2_1_0/VPB sky130_fd_sc_hd__and2_1_5/VPB a_187_n2185# sky130_fd_sc_hd__and4_1_0/a_27_47#
+ sky130_fd_sc_hd__or4_1_0/D sky130_fd_sc_hd__or2_1_0/a_150_297# sky130_fd_sc_hd__and2_1_5/a_59_75#
+ sky130_fd_sc_hd__and4_1_1/VGND sky130_fd_sc_hd__and3_1_0/a_109_47# sky130_fd_sc_hd__or4_1_0/VPWR
+ sky130_fd_sc_hd__and3_1_0/a_181_47# sky130_fd_sc_hd__xor2_1_0/a_285_297# sky130_fd_sc_hd__and2_1_0/B
+ sky130_fd_sc_hd__or4_1_0/B sky130_fd_sc_hd__or4_1_0/a_109_297# sky130_fd_sc_hd__and2_1_4/VPWR
+ sky130_fd_sc_hd__and2_1_0/A sky130_fd_sc_hd__or2_1_0/VPB sky130_fd_sc_hd__and3_1_0/a_27_47#
+ a_187_n2435# sky130_fd_sc_hd__and3_1_0/VPWR sky130_fd_sc_hd__and4_1_1/VPB sky130_fd_sc_hd__xor2_1_0/a_285_47#
+ a_19_n2185# sky130_fd_sc_hd__xor2_1_0/a_35_297# sky130_fd_sc_hd__and2_1_4/a_145_75#
+ sky130_fd_sc_hd__and2_1_0/a_145_75# sky130_fd_sc_hd__and4_1_1/a_27_47# a_155_n4715#
+ sky130_fd_sc_hd__or4_1_0/VGND sky130_fd_sc_hd__or4_1_0/A sky130_fd_sc_hd__and2_1_4/VGND
+ sky130_fd_sc_hd__or2_1_0/a_68_297# sky130_fd_sc_hd__and2_1_0/VPB a_195_n517# a_n63_n2185#
+ a_197_n3749# sky130_fd_sc_hd__or4_1_0/X sky130_fd_sc_hd__and4_1_0/a_109_47# a_195_n767#
+ a_197_n3999# sky130_fd_sc_hd__and2_1_5/VPWR sky130_fd_sc_hd__and3_1_0/VGND sky130_fd_sc_hd__or2_1_0/VPWR
+ sky130_fd_sc_hd__and4_1_0/B sky130_fd_sc_hd__and2_1_5/a_145_75# sky130_fd_sc_hd__and2_1_0/a_59_75#
+ sky130_fd_sc_hd__and4_1_0/VPWR a_153_n1483# a_27_n517# a_69_n4715# sky130_fd_sc_hd__or2_1_0/B
+ sky130_fd_sc_hd__or2_1_0/A sky130_fd_sc_hd__or4_1_0/a_277_297# sky130_fd_sc_hd__and4_1_0/a_197_47#
+ sky130_fd_sc_hd__and2_1_4/VPB sky130_fd_sc_hd__xor2_1_0/a_117_297# sky130_fd_sc_hd__and3_1_0/VPB
+ sky130_fd_sc_hd__and4_1_0/a_303_47# sky130_fd_sc_hd__and4_1_1/C sky130_fd_sc_hd__and4_1_1/a_109_47#
+ sky130_fd_sc_hd__or4_1_0/VPB sky130_fd_sc_hd__or4_1_0/a_27_297# a_29_n3749# sky130_fd_sc_hd__and2_1_5/VGND
+ sky130_fd_sc_hd__or4_1_0/a_205_297# sky130_fd_sc_hd__and2_1_4/a_59_75# sky130_fd_sc_hd__or2_1_0/VGND
+ a_n53_n3749# a_n55_n517# sky130_fd_sc_hd__and4_1_1/A sky130_fd_sc_hd__xor2_1_0/B
+ sky130_fd_sc_hd__and4_1_0/VGND sky130_fd_sc_hd__xor2_1_0/A sky130_fd_sc_hd__or4_1_0/C
+ a_67_n1483# sky130_fd_sc_hd__and4_1_1/VPWR a_59_n3151# sky130_fd_sc_hd__xor2_1_0/X
+ sky130_fd_sc_hd__and4_1_1/a_197_47# VPB X B a_145_n3151# A
Xsky130_fd_sc_hd__xor2_1_3 A B A VNB VPB B X a_19_n2185# a_187_n2185# a_187_n2435#
+ a_n63_n2185# sky130_fd_sc_hd__xor2_1
Xsky130_fd_sc_hd__and2_1_0 sky130_fd_sc_hd__and2_1_0/A sky130_fd_sc_hd__and2_1_0/B
+ sky130_fd_sc_hd__and2_1_0/A VNB sky130_fd_sc_hd__and2_1_0/VPB sky130_fd_sc_hd__and2_1_0/B
+ sky130_fd_sc_hd__and4_1_0/B sky130_fd_sc_hd__and2_1_0/a_145_75# sky130_fd_sc_hd__and2_1_0/a_59_75#
+ sky130_fd_sc_hd__and2_1
Xsky130_fd_sc_hd__and2_1_1 A B A VNB VPB B X a_153_n1483# a_67_n1483# sky130_fd_sc_hd__and2_1
Xsky130_fd_sc_hd__and2_1_3 A B A VNB VPB B X a_145_n3151# a_59_n3151# sky130_fd_sc_hd__and2_1
Xsky130_fd_sc_hd__and2_1_2 A B A VNB VPB B X a_155_n4715# a_69_n4715# sky130_fd_sc_hd__and2_1
Xsky130_fd_sc_hd__and2_1_4 X X sky130_fd_sc_hd__and2_1_4/VGND VNB sky130_fd_sc_hd__and2_1_4/VPB
+ sky130_fd_sc_hd__and2_1_4/VPWR sky130_fd_sc_hd__or4_1_0/C sky130_fd_sc_hd__and2_1_4/a_145_75#
+ sky130_fd_sc_hd__and2_1_4/a_59_75# sky130_fd_sc_hd__and2_1
Xsky130_fd_sc_hd__and2_1_5 X X sky130_fd_sc_hd__and2_1_5/VGND VNB sky130_fd_sc_hd__and2_1_5/VPB
+ sky130_fd_sc_hd__and2_1_5/VPWR sky130_fd_sc_hd__and4_1_1/C sky130_fd_sc_hd__and2_1_5/a_145_75#
+ sky130_fd_sc_hd__and2_1_5/a_59_75# sky130_fd_sc_hd__and2_1
Xsky130_fd_sc_hd__or2_1_0 sky130_fd_sc_hd__or2_1_0/A sky130_fd_sc_hd__or2_1_0/B sky130_fd_sc_hd__or2_1_0/VGND
+ VNB sky130_fd_sc_hd__or2_1_0/VPB sky130_fd_sc_hd__or2_1_0/VPWR sky130_fd_sc_hd__or4_1_0/A
+ sky130_fd_sc_hd__or2_1_0/a_150_297# sky130_fd_sc_hd__or2_1_0/a_68_297# sky130_fd_sc_hd__or2_1
Xsky130_fd_sc_hd__and4_1_0 X sky130_fd_sc_hd__and4_1_0/B sky130_fd_sc_hd__xor2_1_0/X
+ X sky130_fd_sc_hd__and4_1_0/VGND VNB sky130_fd_sc_hd__and4_1_0/VPB sky130_fd_sc_hd__and4_1_0/VPWR
+ sky130_fd_sc_hd__or2_1_0/A sky130_fd_sc_hd__and4_1_0/a_109_47# sky130_fd_sc_hd__and4_1_0/a_197_47#
+ sky130_fd_sc_hd__and4_1_0/a_303_47# sky130_fd_sc_hd__and4_1_0/a_27_47# sky130_fd_sc_hd__and4_1
Xsky130_fd_sc_hd__and4_1_1 sky130_fd_sc_hd__and4_1_1/A X sky130_fd_sc_hd__and4_1_1/C
+ sky130_fd_sc_hd__xor2_1_0/X sky130_fd_sc_hd__and4_1_1/VGND VNB sky130_fd_sc_hd__and4_1_1/VPB
+ sky130_fd_sc_hd__and4_1_1/VPWR sky130_fd_sc_hd__or4_1_0/B sky130_fd_sc_hd__and4_1_1/a_109_47#
+ sky130_fd_sc_hd__and4_1_1/a_197_47# sky130_fd_sc_hd__and4_1_1/a_303_47# sky130_fd_sc_hd__and4_1_1/a_27_47#
+ sky130_fd_sc_hd__and4_1
Xsky130_fd_sc_hd__or4_1_0 sky130_fd_sc_hd__or4_1_0/A sky130_fd_sc_hd__or4_1_0/B sky130_fd_sc_hd__or4_1_0/C
+ sky130_fd_sc_hd__or4_1_0/D sky130_fd_sc_hd__or4_1_0/VGND VNB sky130_fd_sc_hd__or4_1_0/VPB
+ sky130_fd_sc_hd__or4_1_0/VPWR sky130_fd_sc_hd__or4_1_0/X sky130_fd_sc_hd__or4_1_0/a_277_297#
+ sky130_fd_sc_hd__or4_1_0/a_205_297# sky130_fd_sc_hd__or4_1_0/a_27_297# sky130_fd_sc_hd__or4_1_0/a_109_297#
+ sky130_fd_sc_hd__or4_1
Xsky130_fd_sc_hd__and3_1_0 X X X sky130_fd_sc_hd__and3_1_0/VGND VNB sky130_fd_sc_hd__and3_1_0/VPB
+ sky130_fd_sc_hd__and3_1_0/VPWR sky130_fd_sc_hd__or2_1_0/B sky130_fd_sc_hd__and3_1_0/a_181_47#
+ sky130_fd_sc_hd__and3_1_0/a_109_47# sky130_fd_sc_hd__and3_1_0/a_27_47# sky130_fd_sc_hd__and3_1
Xsky130_fd_sc_hd__xor2_1_0 sky130_fd_sc_hd__xor2_1_0/A sky130_fd_sc_hd__xor2_1_0/B
+ sky130_fd_sc_hd__xor2_1_0/A VNB sky130_fd_sc_hd__xor2_1_0/VPB sky130_fd_sc_hd__xor2_1_0/B
+ sky130_fd_sc_hd__xor2_1_0/X sky130_fd_sc_hd__xor2_1_0/a_117_297# sky130_fd_sc_hd__xor2_1_0/a_285_297#
+ sky130_fd_sc_hd__xor2_1_0/a_285_47# sky130_fd_sc_hd__xor2_1_0/a_35_297# sky130_fd_sc_hd__xor2_1
Xsky130_fd_sc_hd__xor2_1_1 A B A VNB VPB B X a_27_n517# a_195_n517# a_195_n767# a_n55_n517#
+ sky130_fd_sc_hd__xor2_1
Xsky130_fd_sc_hd__xor2_1_2 A B A VNB VPB B X a_29_n3749# a_197_n3749# a_197_n3999#
+ a_n53_n3749# sky130_fd_sc_hd__xor2_1
C0 a_n55_n517# sky130_fd_sc_hd__and4_1_0/B 0.0065f
C1 X sky130_fd_sc_hd__and3_1_0/a_181_47# 0.00275f
C2 sky130_fd_sc_hd__and3_1_0/VPWR X 0.34434f
C3 sky130_fd_sc_hd__or2_1_0/VGND sky130_fd_sc_hd__and3_1_0/a_27_47# 0
C4 X sky130_fd_sc_hd__and4_1_1/VPWR -0.00415f
C5 sky130_fd_sc_hd__and3_1_0/VPB sky130_fd_sc_hd__or2_1_0/VGND 0.00189f
C6 sky130_fd_sc_hd__and4_1_1/C sky130_fd_sc_hd__and4_1_1/VPWR -0.00444f
C7 B sky130_fd_sc_hd__xor2_1_0/VPB 0
C8 sky130_fd_sc_hd__and3_1_0/a_27_47# sky130_fd_sc_hd__and3_1_0/VGND -0.00436f
C9 sky130_fd_sc_hd__and3_1_0/VPB sky130_fd_sc_hd__and3_1_0/VGND -0.00287f
C10 sky130_fd_sc_hd__xor2_1_0/X sky130_fd_sc_hd__and2_1_4/VPB 0
C11 a_197_n3749# A 0
C12 sky130_fd_sc_hd__or2_1_0/VPB sky130_fd_sc_hd__and4_1_0/VGND 0.00246f
C13 sky130_fd_sc_hd__or4_1_0/C sky130_fd_sc_hd__or2_1_0/A 0.00329f
C14 a_67_n1483# B 0.05542f
C15 a_69_n4715# VPB 0
C16 a_n63_n2185# X 0.01073f
C17 sky130_fd_sc_hd__and4_1_0/VPB sky130_fd_sc_hd__or4_1_0/C 0
C18 sky130_fd_sc_hd__or4_1_0/C sky130_fd_sc_hd__or4_1_0/VGND 0.14621f
C19 X sky130_fd_sc_hd__and4_1_0/VPWR 0.05837f
C20 sky130_fd_sc_hd__or2_1_0/a_68_297# sky130_fd_sc_hd__or4_1_0/a_27_297# 0
C21 sky130_fd_sc_hd__and3_1_0/a_27_47# sky130_fd_sc_hd__and2_1_4/a_59_75# 0
C22 sky130_fd_sc_hd__and4_1_0/VPWR sky130_fd_sc_hd__and4_1_1/C 0.01347f
C23 X sky130_fd_sc_hd__and4_1_1/VPB 0.00801f
C24 sky130_fd_sc_hd__xor2_1_0/B sky130_fd_sc_hd__xor2_1_0/a_35_297# 0.04603f
C25 sky130_fd_sc_hd__and3_1_0/VPB sky130_fd_sc_hd__and2_1_4/a_59_75# 0
C26 sky130_fd_sc_hd__and4_1_0/B sky130_fd_sc_hd__and2_1_0/A 0.03609f
C27 sky130_fd_sc_hd__and4_1_1/C sky130_fd_sc_hd__and4_1_1/VPB 0.00112f
C28 sky130_fd_sc_hd__and4_1_1/a_109_47# sky130_fd_sc_hd__and4_1_1/VGND -0
C29 sky130_fd_sc_hd__xor2_1_0/X sky130_fd_sc_hd__and3_1_0/VGND 0
C30 X sky130_fd_sc_hd__and4_1_0/a_27_47# 0.06054f
C31 sky130_fd_sc_hd__and4_1_1/C sky130_fd_sc_hd__and4_1_0/a_27_47# 0
C32 A sky130_fd_sc_hd__xor2_1_0/a_35_297# 0
C33 sky130_fd_sc_hd__and4_1_0/a_303_47# sky130_fd_sc_hd__xor2_1_0/X 0.00175f
C34 sky130_fd_sc_hd__and2_1_0/VPB sky130_fd_sc_hd__xor2_1_0/B 0.00406f
C35 sky130_fd_sc_hd__and4_1_0/a_27_47# sky130_fd_sc_hd__and4_1_0/a_109_47# 0
C36 A a_187_n2435# 0.0022f
C37 sky130_fd_sc_hd__or4_1_0/a_277_297# sky130_fd_sc_hd__or4_1_0/VGND -0
C38 sky130_fd_sc_hd__or2_1_0/VGND sky130_fd_sc_hd__or2_1_0/a_150_297# -0
C39 sky130_fd_sc_hd__and3_1_0/VPWR VPB 0
C40 sky130_fd_sc_hd__or2_1_0/A sky130_fd_sc_hd__and4_1_0/VGND 0.06679f
C41 sky130_fd_sc_hd__and2_1_0/VPB A 0
C42 sky130_fd_sc_hd__and4_1_1/VPWR sky130_fd_sc_hd__and4_1_1/VGND -0.04789f
C43 sky130_fd_sc_hd__or4_1_0/B sky130_fd_sc_hd__and2_1_5/a_59_75# 0
C44 sky130_fd_sc_hd__and3_1_0/a_27_47# sky130_fd_sc_hd__and2_1_4/VPWR 0
C45 sky130_fd_sc_hd__and3_1_0/VPB sky130_fd_sc_hd__and2_1_4/VPWR 0
C46 sky130_fd_sc_hd__or4_1_0/C sky130_fd_sc_hd__or2_1_0/VPWR 0.00192f
C47 a_19_n2185# B 0.00416f
C48 sky130_fd_sc_hd__xor2_1_0/X sky130_fd_sc_hd__and2_1_0/B 0.01218f
C49 sky130_fd_sc_hd__and4_1_0/VPB sky130_fd_sc_hd__and4_1_0/VGND -0.00404f
C50 sky130_fd_sc_hd__or4_1_0/C sky130_fd_sc_hd__or4_1_0/D 0.01853f
C51 sky130_fd_sc_hd__xor2_1_0/X sky130_fd_sc_hd__and2_1_4/a_59_75# 0
C52 VPB sky130_fd_sc_hd__xor2_1_0/A 0
C53 sky130_fd_sc_hd__and3_1_0/VPWR a_187_n2185# 0
C54 sky130_fd_sc_hd__xor2_1_0/a_35_297# sky130_fd_sc_hd__xor2_1_0/a_285_297# 0
C55 sky130_fd_sc_hd__and4_1_0/B sky130_fd_sc_hd__and2_1_5/VPB 0.00629f
C56 a_n63_n2185# VPB 0.00419f
C57 a_n55_n517# sky130_fd_sc_hd__xor2_1_0/X 0
C58 sky130_fd_sc_hd__xor2_1_0/VPB sky130_fd_sc_hd__xor2_1_0/B 0.00802f
C59 sky130_fd_sc_hd__xor2_1_0/X sky130_fd_sc_hd__or4_1_0/VPWR 0
C60 sky130_fd_sc_hd__and4_1_0/B sky130_fd_sc_hd__or4_1_0/B 0
C61 sky130_fd_sc_hd__and4_1_0/VPWR VPB 0
C62 sky130_fd_sc_hd__or4_1_0/B sky130_fd_sc_hd__and4_1_1/a_197_47# 0
C63 sky130_fd_sc_hd__or4_1_0/C B 0
C64 A sky130_fd_sc_hd__xor2_1_0/VPB 0
C65 a_27_n517# X 0
C66 B sky130_fd_sc_hd__xor2_1_0/B 0
C67 sky130_fd_sc_hd__or4_1_0/VPWR sky130_fd_sc_hd__or4_1_0/VPB -0.00543f
C68 sky130_fd_sc_hd__and4_1_1/VPB sky130_fd_sc_hd__and4_1_1/VGND -0.0052f
C69 sky130_fd_sc_hd__and3_1_0/a_109_47# sky130_fd_sc_hd__and3_1_0/VGND -0
C70 VPB sky130_fd_sc_hd__and4_1_0/a_27_47# 0
C71 sky130_fd_sc_hd__xor2_1_0/X sky130_fd_sc_hd__and2_1_4/VPWR 0
C72 B A 1.17029f
C73 a_197_n3999# A 0.0022f
C74 sky130_fd_sc_hd__or2_1_0/VPWR sky130_fd_sc_hd__and4_1_0/VGND 0.00285f
C75 sky130_fd_sc_hd__xor2_1_0/X sky130_fd_sc_hd__or4_1_0/a_109_297# 0